data/Network_05R-10/scenario_9/case.raw
 0,    100, 33, 0, 0, 60.0 / Header line 1
Header line 2
Header line 3
  1001,'',   115, 1, 1, 1, 1, 1.0044998, -58.681628, 1.1, 0.9, 1.1, 0.9
  1002,'',   115, 1, 1, 1, 1, 1.0408771, -60.187516, 1.1, 0.9, 1.1, 0.9
  1003,'',   115, 1, 1, 1, 1, 1.017253, -49.337858, 1.1, 0.9, 1.1, 0.9
  1004,'',   230, 2, 1, 1, 1, 1.0203094, -48.160312, 1.1, 0.9, 1.1, 0.9
  1005,'',   115, 1, 1, 1, 1, 1.0050965, -48.161155, 1.1, 0.9, 1.1, 0.9
  1006,'',  13.8, 2, 1, 1, 1, 1, -45.91667, 1.1, 0.9, 1.1, 0.9
  1007,'',   115, 1, 1, 1, 1, 1.044482, -59.938463, 1.1, 0.9, 1.1, 0.9
  1008,'',   115, 1, 1, 1, 1, 1.0211457, -49.45563, 1.1, 0.9, 1.1, 0.9
  1009,'',  13.8, 2, 1, 1, 1, 1.0103725, -48.994395, 1.1, 0.9, 1.1, 0.9
  1010,'',   115, 1, 1, 1, 1, 1.0445874, -59.369182, 1.1, 0.9, 1.1, 0.9
  1011,'',    22, 2, 1, 1, 1, 1.0445874, -59.369182, 1.1, 0.9, 1.1, 0.9
  1012,'',   115, 1, 1, 1, 1, 1.0210461, -58.416855, 1.1, 0.9, 1.1, 0.9
  1013,'',   115, 1, 1, 1, 1, 1.0114375, -56.259798, 1.1, 0.9, 1.1, 0.9
  1014,'',   115, 1, 1, 1, 1, 1.0134175, -53.87562, 1.1, 0.9, 1.1, 0.9
  1015,'',   115, 1, 1, 1, 1, 1.0479916, -60.147279, 1.1, 0.9, 1.1, 0.9
  1016,'',   115, 1, 1, 1, 1, 1.015, -49.580279, 1.1, 0.9, 1.1, 0.9
  1017,'',   115, 1, 1, 1, 1, 1.0017145, -57.935376, 1.1, 0.9, 1.1, 0.9
  1018,'',   115, 1, 1, 1, 1, 1.0054514, -56.662225, 1.1, 0.9, 1.1, 0.9
  1019,'',   115, 1, 1, 1, 1, 1.015, -57.968187, 1.1, 0.9, 1.1, 0.9
  1020,'',   115, 1, 1, 1, 1, 1.015, -46.178557, 1.1, 0.9, 1.1, 0.9
  1021,'',  13.8, 2, 1, 1, 1, 1, -40.141833, 1.1, 0.9, 1.1, 0.9
  1022,'',   115, 1, 1, 1, 1, 1.0180826, -49.0424, 1.1, 0.9, 1.1, 0.9
  1023,'',  13.8, 2, 1, 1, 1, 1.01, -47.600696, 1.1, 0.9, 1.1, 0.9
  1024,'',   115, 1, 1, 1, 1, 1.0041707, -55.64668, 1.1, 0.9, 1.1, 0.9
  1025,'',   115, 1, 1, 1, 1, 1.0128436, -45.599985, 1.1, 0.9, 1.1, 0.9
  1026,'',  13.8, 2, 1, 1, 1, 1, -37.14032, 1.1, 0.9, 1.1, 0.9
  1027,'',   115, 1, 1, 1, 1, 1, -58.810498, 1.1, 0.9, 1.1, 0.9
  1028,'',   115, 1, 1, 1, 1, 1.0203274, -48.94732, 1.1, 0.9, 1.1, 0.9
  1029,'',   115, 1, 1, 1, 1, 1.015, -58.630883, 1.1, 0.9, 1.1, 0.9
  1030,'',   115, 1, 1, 1, 1, 1.0221711, -55.926577, 1.1, 0.9, 1.1, 0.9
  1031,'',   115, 1, 1, 1, 1, 1.0285756, -58.66491, 1.1, 0.9, 1.1, 0.9
  1032,'',   115, 1, 1, 1, 1, 1.0081847, -51.77352, 1.1, 0.9, 1.1, 0.9
  1033,'',   230, 2, 1, 1, 1, 1.0133437, -53.848121, 1.1, 0.9, 1.1, 0.9
  1034,'',   115, 1, 1, 1, 1, 1.0040401, -47.548804, 1.1, 0.9, 1.1, 0.9
  1035,'',  13.8, 2, 1, 1, 1, 1, -44.190738, 1.1, 0.9, 1.1, 0.9
  1036,'',   115, 1, 1, 1, 1, 1.0021316, -51.341885, 1.1, 0.9, 1.1, 0.9
  1037,'',   115, 1, 1, 1, 1, 0.9989201, -58.730886, 1.1, 0.9, 1.1, 0.9
  1038,'',   115, 1, 1, 1, 1, 1.0123591, -50.961111, 1.1, 0.9, 1.1, 0.9
  1039,'',    22, 2, 1, 1, 1, 1, -50.730703, 1.1, 0.9, 1.1, 0.9
  1040,'',   115, 1, 1, 1, 1, 1.0051894, -56.456674, 1.1, 0.9, 1.1, 0.9
  1041,'',   115, 1, 1, 1, 1, 1.0011688, -48.387628, 1.1, 0.9, 1.1, 0.9
  1042,'',  13.8, 2, 1, 1, 1, 1.0011688, -48.387628, 1.1, 0.9, 1.1, 0.9
  1043,'',  13.8, 2, 1, 1, 1, 1, -45.459452, 1.1, 0.9, 1.1, 0.9
  1044,'',   115, 1, 1, 1, 1, 1.0148039, -53.911343, 1.1, 0.9, 1.1, 0.9
  1045,'',   115, 1, 1, 1, 1, 0.99679407, -59.377589, 1.1, 0.9, 1.1, 0.9
  1046,'',   115, 1, 1, 1, 1, 1.0211821, -55.343726, 1.1, 0.9, 1.1, 0.9
  1047,'',   115, 1, 1, 1, 1, 1.0095602, -54.679326, 1.1, 0.9, 1.1, 0.9
  1048,'',    18, 2, 1, 1, 1, 1.0095602, -54.679326, 1.1, 0.9, 1.1, 0.9
  1049,'',    18, 2, 1, 1, 1, 1.0095602, -54.679326, 1.1, 0.9, 1.1, 0.9
  1050,'',    18, 2, 1, 1, 1, 1.00047, -53.090694, 1.1, 0.9, 1.1, 0.9
  1051,'',    18, 2, 1, 1, 1, 1, -52.624024, 1.1, 0.9, 1.1, 0.9
  1052,'',    18, 2, 1, 1, 1, 1.0024844, -53.356421, 1.1, 0.9, 1.1, 0.9
  1053,'',   230, 2, 1, 1, 1, 1.0166941, -54.673032, 1.1, 0.9, 1.1, 0.9
  1054,'',   115, 1, 1, 1, 1, 1.0041817, -54.720988, 1.1, 0.9, 1.1, 0.9
  1055,'',   115, 1, 1, 1, 1, 1.0104747, -50.275609, 1.1, 0.9, 1.1, 0.9
  1056,'',   115, 1, 1, 1, 1, 1.015, -54.70667, 1.1, 0.9, 1.1, 0.9
  1057,'',    18, 2, 1, 1, 1, 1.015, -54.70667, 1.1, 0.9, 1.1, 0.9
  1058,'',   115, 1, 1, 1, 1, 1.0257203, -50.250539, 1.1, 0.9, 1.1, 0.9
  1059,'',    22, 2, 1, 1, 1, 1.0257203, -50.250539, 1.1, 0.9, 1.1, 0.9
  1060,'',    22, 2, 1, 1, 1, 1.0257203, -50.250539, 1.1, 0.9, 1.1, 0.9
  1061,'',   115, 1, 1, 1, 1, 1.005364, -49.073736, 1.1, 0.9, 1.1, 0.9
  1062,'',  13.8, 2, 1, 1, 1, 1.005364, -49.073736, 1.1, 0.9, 1.1, 0.9
  1063,'',  13.8, 2, 1, 1, 1, 1.005364, -49.073736, 1.1, 0.9, 1.1, 0.9
  1064,'',   115, 1, 1, 1, 1, 0.99706313, -59.542492, 1.1, 0.9, 1.1, 0.9
  1065,'',   115, 1, 1, 1, 1, 1.0031669, -48.658762, 1.1, 0.9, 1.1, 0.9
  1066,'',  13.8, 2, 1, 1, 1, 1, -44.405367, 1.1, 0.9, 1.1, 0.9
  1067,'',   115, 1, 1, 1, 1, 0.99867738, -48.566277, 1.1, 0.9, 1.1, 0.9
  1068,'',   115, 1, 1, 1, 1, 0.99175661, -51.944206, 1.1, 0.9, 1.1, 0.9
  1069,'',   115, 1, 1, 1, 1, 1.0266153, -48.92577, 1.1, 0.9, 1.1, 0.9
  1070,'',  13.8, 2, 1, 1, 1, 1.04, -44.564841, 1.1, 0.9, 1.1, 0.9
  1071,'',   115, 1, 1, 1, 1, 1.0114419, -57.895265, 1.1, 0.9, 1.1, 0.9
  1072,'',    18, 2, 1, 1, 1, 1.01, -55.010453, 1.1, 0.9, 1.1, 0.9
  1073,'',    18, 2, 1, 1, 1, 1.01, -53.100446, 1.1, 0.9, 1.1, 0.9
  1074,'',    18, 2, 1, 1, 1, 1.01, -53.703302, 1.1, 0.9, 1.1, 0.9
  1075,'',    18, 2, 1, 1, 1, 1.01, -54.541642, 1.1, 0.9, 1.1, 0.9
  1076,'',    18, 2, 1, 1, 1, 1.0114419, -57.895265, 1.1, 0.9, 1.1, 0.9
  1077,'',    18, 2, 1, 1, 1, 1.0114419, -57.895265, 1.1, 0.9, 1.1, 0.9
  1078,'',    18, 2, 1, 1, 1, 1.01, -54.704843, 1.1, 0.9, 1.1, 0.9
  1079,'',   500, 2, 1, 1, 1, 1.047827, -62.062044, 1.1, 0.9, 1.1, 0.9
  1080,'',    18, 2, 1, 1, 1, 1.01, -54.508741, 1.1, 0.9, 1.1, 0.9
  1081,'',   230, 2, 1, 1, 1, 1.0182164, -54.675849, 1.1, 0.9, 1.1, 0.9
  1082,'',   115, 2, 1, 1, 1, 1.0167713, -48.495148, 1.1, 0.9, 1.1, 0.9
  1083,'',   115, 1, 1, 1, 1, 1.015, -52.662181, 1.1, 0.9, 1.1, 0.9
  1084,'',   115, 2, 1, 1, 1, 1.0228176, -48.12643, 1.1, 0.9, 1.1, 0.9
  1085,'',   115, 1, 1, 1, 1, 1.0121991, -55.1478, 1.1, 0.9, 1.1, 0.9
  1086,'',   115, 1, 1, 1, 1, 1.015, -57.238906, 1.1, 0.9, 1.1, 0.9
  1087,'',   115, 1, 1, 1, 1, 1.0262692, -52.758948, 1.1, 0.9, 1.1, 0.9
  1088,'',   115, 2, 1, 1, 1, 1, -50.209631, 1.1, 0.9, 1.1, 0.9
  1089,'',   115, 1, 1, 1, 1, 0.99197904, -53.153609, 1.1, 0.9, 1.1, 0.9
  1090,'',   115, 2, 1, 1, 1, 1.02, -53.061116, 1.1, 0.9, 1.1, 0.9
  1091,'',   161, 1, 1, 1, 1, 1.0208872, -58.366152, 1.1, 0.9, 1.1, 0.9
  2001,'',   161, 1, 1, 1, 1, 1.0208409, -76.407358, 1.1, 0.9, 1.1, 0.9
  2002,'',   500, 1, 1, 1, 1, 1.0246483, -76.262587, 1.1, 0.9, 1.1, 0.9
  2003,'',   161, 1, 1, 1, 1, 1.0198668, -77.657248, 1.1, 0.9, 1.1, 0.9
  2004,'',  13.8, 2, 1, 1, 1, 1.0246483, -76.262587, 1.1, 0.9, 1.1, 0.9
  2005,'',  13.8, 2, 1, 1, 1, 1.0246483, -76.262587, 1.1, 0.9, 1.1, 0.9
  2006,'',  13.8, 2, 1, 1, 1, 1.0246483, -76.262587, 1.1, 0.9, 1.1, 0.9
  2007,'',   161, 1, 1, 1, 1, 1.020422, -76.167148, 1.1, 0.9, 1.1, 0.9
  2008,'',   161, 1, 1, 1, 1, 1.024377, -61.66103, 1.1, 0.9, 1.1, 0.9
  2009,'',   161, 1, 1, 1, 1, 1.0184298, -66.34516, 1.1, 0.9, 1.1, 0.9
  2010,'',   161, 1, 1, 1, 1, 1.0179133, -60.58005, 1.1, 0.9, 1.1, 0.9
  2011,'',   500, 1, 1, 1, 1, 1.0392782, -61.369636, 1.1, 0.9, 1.1, 0.9
  2012,'',   161, 1, 1, 1, 1, 1.0290944, -60.576873, 1.1, 0.9, 1.1, 0.9
  2013,'',    18, 2, 1, 1, 1, 1.0312713, -60.271101, 1.1, 0.9, 1.1, 0.9
  2014,'',   161, 1, 1, 1, 1, 1.0223631, -61.48899, 1.1, 0.9, 1.1, 0.9
  2015,'',   161, 1, 1, 1, 1, 1.0076273, -75.855734, 1.1, 0.9, 1.1, 0.9
  2016,'',   161, 1, 1, 1, 1, 1.00546, -81.111858, 1.1, 0.9, 1.1, 0.9
  2017,'',   500, 1, 1, 1, 1, 1.0244006, -60.813909, 1.1, 0.9, 1.1, 0.9
  2018,'',   161, 1, 1, 1, 1, 1.0265449, -60.725036, 1.1, 0.9, 1.1, 0.9
  2019,'',    20, 2, 1, 1, 1, 1.0244006, -60.813909, 1.1, 0.9, 1.1, 0.9
  2020,'',   161, 1, 1, 1, 1, 1.0235633, -66.411372, 1.1, 0.9, 1.1, 0.9
  2021,'',   500, 1, 1, 1, 1, 1.0260207, -74.425298, 1.1, 0.9, 1.1, 0.9
  2022,'',   161, 1, 1, 1, 1, 1.0251251, -75.559307, 1.1, 0.9, 1.1, 0.9
  2023,'',  13.8, 2, 1, 1, 1, 1.0231794, -72.873503, 1.1, 0.9, 1.1, 0.9
  2024,'',  13.8, 2, 1, 1, 1, 1.0219148, -73.733415, 1.1, 0.9, 1.1, 0.9
  2025,'',   161, 1, 1, 1, 1, 1.0233389, -65.865328, 1.1, 0.9, 1.1, 0.9
  2026,'',   161, 1, 1, 1, 1, 1.0302432, -61.110032, 1.1, 0.9, 1.1, 0.9
  2027,'',   161, 1, 1, 1, 1, 1.0221417, -76.645824, 1.1, 0.9, 1.1, 0.9
  2028,'',   161, 1, 1, 1, 1, 1.0184076, -67.613909, 1.1, 0.9, 1.1, 0.9
  2029,'',   161, 1, 1, 1, 1, 1.0243751, -60.606371, 1.1, 0.9, 1.1, 0.9
  2030,'',   161, 1, 1, 1, 1, 1.0105529, -78.304807, 1.1, 0.9, 1.1, 0.9
  2031,'',   161, 1, 1, 1, 1, 1.0255067, -55.762741, 1.1, 0.9, 1.1, 0.9
  2032,'',   161, 1, 1, 1, 1, 1.0217401, -75.845812, 1.1, 0.9, 1.1, 0.9
  2033,'',   161, 1, 1, 1, 1, 1.0112221, -78.902045, 1.1, 0.9, 1.1, 0.9
  2034,'',   161, 1, 1, 1, 1, 1.0041766, -80.832071, 1.1, 0.9, 1.1, 0.9
  2035,'',   161, 1, 1, 1, 1, 1.0234896, -55.720428, 1.1, 0.9, 1.1, 0.9
  2036,'',   161, 1, 1, 1, 1, 1.0228209, -66.146888, 1.1, 0.9, 1.1, 0.9
  2037,'',   161, 1, 1, 1, 1, 1.0101957, -75.918715, 1.1, 0.9, 1.1, 0.9
  2038,'',   161, 1, 1, 1, 1, 1.0184413, -77.950661, 1.1, 0.9, 1.1, 0.9
  2039,'',   161, 1, 1, 1, 1, 1.0077257, -74.54332, 1.1, 0.9, 1.1, 0.9
  2040,'',   161, 1, 1, 1, 1, 1.0250918, -76.019255, 1.1, 0.9, 1.1, 0.9
  2041,'',   161, 1, 1, 1, 1, 1.0259256, -59.755853, 1.1, 0.9, 1.1, 0.9
  2042,'',    18, 2, 1, 1, 1, 1.0173356, -59.169432, 1.1, 0.9, 1.1, 0.9
  2043,'',   161, 1, 1, 1, 1, 1.0046562, -80.967208, 1.1, 0.9, 1.1, 0.9
  2044,'',   161, 1, 1, 1, 1, 1.0100442, -77.635841, 1.1, 0.9, 1.1, 0.9
  2045,'',   161, 1, 1, 1, 1, 1.0221773, -66.69169, 1.1, 0.9, 1.1, 0.9
  2046,'',   161, 1, 1, 1, 1, 1.0038527, -80.64668, 1.1, 0.9, 1.1, 0.9
  2047,'',   161, 1, 1, 1, 1, 1.0167428, -78.202518, 1.1, 0.9, 1.1, 0.9
  2048,'',   161, 1, 1, 1, 1, 1.0245981, -57.933395, 1.1, 0.9, 1.1, 0.9
  2049,'',   161, 1, 1, 1, 1, 1.0188133, -63.756991, 1.1, 0.9, 1.1, 0.9
  2050,'',   161, 1, 1, 1, 1, 1.0177272, -78.061643, 1.1, 0.9, 1.1, 0.9
  2051,'',   161, 1, 1, 1, 1, 1.0129584, -71.066557, 1.1, 0.9, 1.1, 0.9
  2052,'',   161, 1, 1, 1, 1, 1.0247325, -61.52662, 1.1, 0.9, 1.1, 0.9
  2053,'',   161, 1, 1, 1, 1, 1.0104511, -73.84935, 1.1, 0.9, 1.1, 0.9
  2054,'',   500, 1, 1, 1, 1, 1.0293638, -65.472507, 1.1, 0.9, 1.1, 0.9
  2055,'',   161, 1, 1, 1, 1, 1.0261971, -65.903165, 1.1, 0.9, 1.1, 0.9
  2056,'',    18, 2, 1, 1, 1, 1.0293638, -65.472507, 1.1, 0.9, 1.1, 0.9
  2057,'',    18, 2, 1, 1, 1, 1.0204787, -63.845839, 1.1, 0.9, 1.1, 0.9
  2058,'',   161, 1, 1, 1, 1, 1.0257801, -59.339728, 1.1, 0.9, 1.1, 0.9
  2059,'',  13.8, 2, 1, 1, 1, 1.0157561, -55.987504, 1.1, 0.9, 1.1, 0.9
  2060,'',   161, 1, 1, 1, 1, 1.0181385, -77.3016, 1.1, 0.9, 1.1, 0.9
  2061,'',   161, 1, 1, 1, 1, 1.0207713, -61.595102, 1.1, 0.9, 1.1, 0.9
  2062,'',    18, 2, 1, 1, 1, 1.02, -60.316238, 1.1, 0.9, 1.1, 0.9
  2063,'',   161, 1, 1, 1, 1, 1.0045664, -80.290469, 1.1, 0.9, 1.1, 0.9
  2064,'',   161, 1, 1, 1, 1, 1.0214616, -76.43735, 1.1, 0.9, 1.1, 0.9
  2065,'',   161, 1, 1, 1, 1, 1.0056897, -77.350993, 1.1, 0.9, 1.1, 0.9
  2066,'',   161, 1, 1, 1, 1, 1.0240353, -53.375298, 1.1, 0.9, 1.1, 0.9
  2067,'',   161, 1, 1, 1, 1, 1.0212108, -65.618155, 1.1, 0.9, 1.1, 0.9
  2068,'',   161, 1, 1, 1, 1, 1.0206808, -63.49299, 1.1, 0.9, 1.1, 0.9
  2069,'',   161, 1, 1, 1, 1, 1.015, -80.38983, 1.1, 0.9, 1.1, 0.9
  2070,'',   161, 1, 1, 1, 1, 1.0213355, -62.947631, 1.1, 0.9, 1.1, 0.9
  2071,'',    18, 2, 1, 1, 1, 1.0098713, -59.542036, 1.1, 0.9, 1.1, 0.9
  2072,'',   161, 1, 1, 1, 1, 1.0167833, -79.262378, 1.1, 0.9, 1.1, 0.9
  2073,'',   161, 1, 1, 1, 1, 1.0247155, -51.388314, 1.1, 0.9, 1.1, 0.9
  2074,'',   115, 1, 1, 1, 1, 1.014488, -49.77172, 1.1, 0.9, 1.1, 0.9
  2075,'',   115, 1, 1, 1, 1, 1.014488, -49.77172, 1.1, 0.9, 1.1, 0.9
  2076,'',    24, 2, 1, 1, 1, 1.0299971, -50.381467, 1.1, 0.9, 1.1, 0.9
  2077,'',   161, 1, 1, 1, 1, 1.016373, -74.064371, 1.1, 0.9, 1.1, 0.9
  2078,'',  13.8, 2, 1, 1, 1, 1.02, -70.525032, 1.1, 0.9, 1.1, 0.9
  2079,'',   161, 1, 1, 1, 1, 1.0223906, -59.605394, 1.1, 0.9, 1.1, 0.9
  2080,'',   161, 1, 1, 1, 1, 1.0124608, -72.69433, 1.1, 0.9, 1.1, 0.9
  2081,'',   161, 1, 1, 1, 1, 1.0156634, -78.444555, 1.1, 0.9, 1.1, 0.9
  2082,'',   161, 1, 1, 1, 1, 1.0205404, -66.267871, 1.1, 0.9, 1.1, 0.9
  2083,'',    20, 2, 1, 1, 1, 1.02, -64.691008, 1.1, 0.9, 1.1, 0.9
  2084,'',    20, 2, 1, 1, 1, 1.0205404, -66.267871, 1.1, 0.9, 1.1, 0.9
  2085,'',    20, 2, 1, 1, 1, 1.0205404, -66.267871, 1.1, 0.9, 1.1, 0.9
  2086,'',   161, 1, 1, 1, 1, 1.0097774, -73.849976, 1.1, 0.9, 1.1, 0.9
  2087,'',   161, 1, 1, 1, 1, 1.025238, -53.614752, 1.1, 0.9, 1.1, 0.9
  2088,'',   161, 1, 1, 1, 1, 1.0207223, -63.186789, 1.1, 0.9, 1.1, 0.9
  2089,'',    24, 2, 1, 1, 1, 1.0097795, -60.623177, 1.1, 0.9, 1.1, 0.9
  2090,'',   161, 1, 1, 1, 1, 1.0234214, -76.961455, 1.1, 0.9, 1.1, 0.9
  2091,'',   161, 1, 1, 1, 1, 1.0209819, -58.490349, 1.1, 0.9, 1.1, 0.9
  2092,'',   161, 1, 1, 1, 1, 1.0100282, -79.2981, 1.1, 0.9, 1.1, 0.9
  2093,'',   161, 1, 1, 1, 1, 1.028453, -60.653386, 1.1, 0.9, 1.1, 0.9
  2094,'',  13.8, 2, 1, 1, 1, 1.028453, -60.653386, 1.1, 0.9, 1.1, 0.9
  2095,'',  13.8, 2, 1, 1, 1, 1.028453, -60.653386, 1.1, 0.9, 1.1, 0.9
  2096,'',   500, 1, 1, 1, 1, 1, -56.99594, 1.1, 0.9, 1.1, 0.9
  2097,'',   230, 1, 1, 1, 1, 1.0020888, -56.310944, 1.1, 0.9, 1.1, 0.9
  2098,'',   161, 1, 1, 1, 1, 1.0189854, -58.020804, 1.1, 0.9, 1.1, 0.9
  2099,'',    18, 2, 1, 1, 1, 1.0007457, -56.934593, 1.1, 0.9, 1.1, 0.9
  2100,'',    18, 2, 1, 1, 1, 1.0134975, -55.881754, 1.1, 0.9, 1.1, 0.9
  2101,'',   500, 1, 1, 1, 1, 1.0237056, -76.577808, 1.1, 0.9, 1.1, 0.9
  2102,'',   161, 1, 1, 1, 1, 1.0207422, -77.391316, 1.1, 0.9, 1.1, 0.9
  2103,'',    20, 2, 1, 1, 1, 1.0237056, -76.577808, 1.1, 0.9, 1.1, 0.9
  2104,'',    20, 2, 1, 1, 1, 1.0237056, -76.577808, 1.1, 0.9, 1.1, 0.9
  2105,'',    20, 2, 1, 1, 1, 1.0237056, -76.577808, 1.1, 0.9, 1.1, 0.9
  2106,'',   161, 1, 1, 1, 1, 1.0090559, -79.148173, 1.1, 0.9, 1.1, 0.9
  2107,'',   161, 1, 1, 1, 1, 1.0172186, -77.900637, 1.1, 0.9, 1.1, 0.9
  2108,'',   161, 1, 1, 1, 1, 1.0224971, -63.58746, 1.1, 0.9, 1.1, 0.9
  2109,'',   161, 1, 1, 1, 1, 1.0165124, -67.082915, 1.1, 0.9, 1.1, 0.9
...
0 / END OF BUS DATA, BEGIN LOAD DATA
1001, '1', 1, 1, 1, 16.025, 4.54, 0, 0, 0, 0, 1, 1, 0
1002, '1', 1, 1, 1, 11.886, 3.368, 0, 0, 0, 0, 1, 1, 0
1007, '1', 1, 1, 1, 5.404, 1.531, 0, 0, 0, 0, 1, 1, 0
1012, '1', 1, 1, 1, 2.302, 0.652, 0, 0, 0, 0, 1, 1, 0
1013, '1', 1, 1, 1, 22.537, 6.385, 0, 0, 0, 0, 1, 1, 0
1014, '1', 1, 1, 1, 1.712, 0.485, 0, 0, 0, 0, 1, 1, 0
1015, '1', 1, 1, 1, 5.79, 1.641, 0, 0, 0, 0, 1, 1, 0
1016, '1', 1, 1, 1, 2.228, 0.631, 0, 0, 0, 0, 1, 1, 0
1017, '1', 1, 1, 1, 14.146, 4.008, 0, 0, 0, 0, 1, 1, 0
1018, '1', 1, 1, 1, 0.053, 0.015, 0, 0, 0, 0, 1, 1, 0
1019, '1', 1, 1, 1, 47.637, 13.497, 0, 0, 0, 0, 1, 1, 0
1024, '1', 1, 1, 1, 48.611, 13.773, 0, 0, 0, 0, 1, 1, 0
1027, '1', 1, 1, 1, 78.046, 22.113, 0, 0, 0, 0, 1, 1, 0
1028, '1', 1, 1, 1, 7.723, 2.188, 0, 0, 0, 0, 1, 1, 0
1029, '1', 1, 1, 1, 64.145, 18.174, 0, 0, 0, 0, 1, 1, 0
1030, '1', 1, 1, 1, 18.99, 5.38, 0, 0, 0, 0, 1, 1, 0
1031, '1', 1, 1, 1, 7.13, 2.02, 0, 0, 0, 0, 1, 1, 0
1036, '1', 1, 1, 1, 10.484, 2.97, 0, 0, 0, 0, 1, 1, 0
1037, '1', 1, 1, 1, 78.837, 22.337, 0, 0, 0, 0, 1, 1, 0
1040, '1', 1, 1, 1, 34.206, 9.692, 0, 0, 0, 0, 1, 1, 0
1044, '1', 1, 1, 1, 11.321, 3.208, 0, 0, 0, 0, 1, 1, 0
1045, '1', 1, 1, 1, 76.004, 21.534, 0, 0, 0, 0, 1, 1, 0
1046, '1', 1, 1, 1, 8.548, 2.422, 0, 0, 0, 0, 1, 1, 0
1054, '1', 1, 1, 1, 11.558, 3.274, 0, 0, 0, 0, 1, 1, 0
1055, '1', 1, 1, 1, 3.068, 0.869, 0, 0, 0, 0, 1, 1, 0
1058, '1', 1, 1, 1, 10.376, 2.94, 0, 0, 0, 0, 1, 1, 0
1064, '1', 1, 1, 1, 95.433, 27.039, 0, 0, 0, 0, 1, 1, 0
1067, '1', 1, 1, 1, 78.308, 22.187, 0, 0, 0, 0, 1, 1, 0
1068, '1', 1, 1, 1, 45.807, 12.979, 0, 0, 0, 0, 1, 1, 0
1071, '1', 1, 1, 1, 70.53, 19.984, 0, 0, 0, 0, 1, 1, 0
1083, '1', 1, 1, 1, 30.803, 8.727, 0, 0, 0, 0, 1, 1, 0
1085, '1', 1, 1, 1, 16.422, 4.653, 0, 0, 0, 0, 1, 1, 0
1086, '1', 1, 1, 1, 30.592, 8.668, 0, 0, 0, 0, 1, 1, 0
1087, '1', 1, 1, 1, 0.701, 0.199, 0, 0, 0, 0, 1, 1, 0
1089, '1', 1, 1, 1, 31.312, 8.872, 0, 0, 0, 0, 1, 1, 0
1091, '1', 1, 1, 1, 8.962, 2.54, 0, 0, 0, 0, 1, 1, 0
2001, '1', 1, 1, 1, 32.922, 9.328, 0, 0, 0, 0, 1, 1, 0
2007, '1', 1, 1, 1, 6.495, 1.84, 0, 0, 0, 0, 1, 1, 0
2008, '1', 1, 1, 1, 5.488, 1.555, 0, 0, 0, 0, 1, 1, 0
2009, '1', 1, 1, 1, 26.643, 7.549, 0, 0, 0, 0, 1, 1, 0
2010, '1', 1, 1, 1, 38.673, 10.958, 0, 0, 0, 0, 1, 1, 0
2014, '1', 1, 1, 1, 17.311, 4.905, 0, 0, 0, 0, 1, 1, 0
2015, '1', 1, 1, 1, 3.19, 0.904, 0, 0, 0, 0, 1, 1, 0
2016, '1', 1, 1, 1, 47.158, 13.361, 0, 0, 0, 0, 1, 1, 0
2020, '1', 1, 1, 1, 32.661, 9.254, 0, 0, 0, 0, 1, 1, 0
2022, '1', 1, 1, 1, 7.874, 2.231, 0, 0, 0, 0, 1, 1, 0
2025, '1', 1, 1, 1, 26.972, 7.642, 0, 0, 0, 0, 1, 1, 0
2026, '1', 1, 1, 1, 12.642, 3.582, 0, 0, 0, 0, 1, 1, 0
2027, '1', 1, 1, 1, 2.42, 0.686, 0, 0, 0, 0, 1, 1, 0
2028, '1', 1, 1, 1, 9.693, 2.746, 0, 0, 0, 0, 1, 1, 0
2029, '1', 1, 1, 1, 2.179, 0.617, 0, 0, 0, 0, 1, 1, 0
2030, '1', 1, 1, 1, 32.096, 9.094, 0, 0, 0, 0, 1, 1, 0
2031, '1', 1, 1, 1, 3.925, 1.112, 0, 0, 0, 0, 1, 1, 0
2032, '1', 1, 1, 1, 2.283, 0.647, 0, 0, 0, 0, 1, 1, 0
2033, '1', 1, 1, 1, 9.24, 2.618, 0, 0, 0, 0, 1, 1, 0
2034, '1', 1, 1, 1, 3.636, 1.03, 0, 0, 0, 0, 1, 1, 0
2035, '1', 1, 1, 1, 3.189, 0.903, 0, 0, 0, 0, 1, 1, 0
2036, '1', 1, 1, 1, 28.312, 8.022, 0, 0, 0, 0, 1, 1, 0
2037, '1', 1, 1, 1, 2.384, 0.675, 0, 0, 0, 0, 1, 1, 0
2038, '1', 1, 1, 1, 1.773, 0.502, 0, 0, 0, 0, 1, 1, 0
2039, '1', 1, 1, 1, 3.785, 1.072, 0, 0, 0, 0, 1, 1, 0
2040, '1', 1, 1, 1, 10.827, 3.068, 0, 0, 0, 0, 1, 1, 0
2043, '1', 1, 1, 1, 2.884, 0.817, 0, 0, 0, 0, 1, 1, 0
2044, '1', 1, 1, 1, 18.658, 5.286, 0, 0, 0, 0, 1, 1, 0
2045, '1', 1, 1, 1, 15.39, 4.36, 0, 0, 0, 0, 1, 1, 0
2046, '1', 1, 1, 1, 15.069, 4.27, 0, 0, 0, 0, 1, 1, 0
2047, '1', 1, 1, 1, 10.181, 2.885, 0, 0, 0, 0, 1, 1, 0
2048, '1', 1, 1, 1, 4.369, 1.238, 0, 0, 0, 0, 1, 1, 0
2049, '1', 1, 1, 1, 7.878, 2.233, 0, 0, 0, 0, 1, 1, 0
2050, '1', 1, 1, 1, 2.49, 0.705, 0, 0, 0, 0, 1, 1, 0
2051, '1', 1, 1, 1, 12.152, 3.443, 0, 0, 0, 0, 1, 1, 0
2052, '1', 1, 1, 1, 16.909, 4.791, 0, 0, 0, 0, 1, 1, 0
2053, '1', 1, 1, 1, 19.834, 5.62, 0, 0, 0, 0, 1, 1, 0
2055, '1', 1, 1, 1, 33.782, 9.572, 0, 0, 0, 0, 1, 1, 0
2060, '1', 1, 1, 1, 2.584, 0.732, 0, 0, 0, 0, 1, 1, 0
2063, '1', 1, 1, 1, 44.672, 12.657, 0, 0, 0, 0, 1, 1, 0
2064, '1', 1, 1, 1, 6.841, 1.938, 0, 0, 0, 0, 1, 1, 0
2065, '1', 1, 1, 1, 53.348, 15.115, 0, 0, 0, 0, 1, 1, 0
2066, '1', 1, 1, 1, 4.842, 1.372, 0, 0, 0, 0, 1, 1, 0
2067, '1', 1, 1, 1, 36.741, 10.41, 0, 0, 0, 0, 1, 1, 0
2068, '1', 1, 1, 1, 3.921, 1.111, 0, 0, 0, 0, 1, 1, 0
2069, '1', 1, 1, 1, 14.926, 4.229, 0, 0, 0, 0, 1, 1, 0
2072, '1', 1, 1, 1, 6.607, 1.872, 0, 0, 0, 0, 1, 1, 0
2079, '1', 1, 1, 1, 3.049, 0.864, 0, 0, 0, 0, 1, 1, 0
2080, '1', 1, 1, 1, 11.527, 3.266, 0, 0, 0, 0, 1, 1, 0
2081, '1', 1, 1, 1, 3.039, 0.861, 0, 0, 0, 0, 1, 1, 0
2082, '1', 1, 1, 1, 40.189, 11.387, 0, 0, 0, 0, 1, 1, 0
2086, '1', 1, 1, 1, 1.493, 0.423, 0, 0, 0, 0, 1, 1, 0
2087, '1', 1, 1, 1, 5.376, 1.523, 0, 0, 0, 0, 1, 1, 0
2090, '1', 1, 1, 1, 1.65, 0.468, 0, 0, 0, 0, 1, 1, 0
2091, '1', 1, 1, 1, 11.605, 3.288, 0, 0, 0, 0, 1, 1, 0
2092, '1', 1, 1, 1, 16.413, 4.65, 0, 0, 0, 0, 1, 1, 0
2106, '1', 1, 1, 1, 9.806, 2.778, 0, 0, 0, 0, 1, 1, 0
2107, '1', 1, 1, 1, 50.483, 14.303, 0, 0, 0, 0, 1, 1, 0
2108, '1', 1, 1, 1, 1.46, 0.414, 0, 0, 0, 0, 1, 1, 0
2109, '1', 1, 1, 1, 23.018, 6.522, 0, 0, 0, 0, 1, 1, 0
2110, '1', 1, 1, 1, 5.847, 1.657, 0, 0, 0, 0, 1, 1, 0
2111, '1', 1, 1, 1, 9.499, 2.692, 0, 0, 0, 0, 1, 1, 0
2112, '1', 1, 1, 1, 3.092, 0.876, 0, 0, 0, 0, 1, 1, 0
2114, '1', 1, 1, 1, 48.185, 13.652, 0, 0, 0, 0, 1, 1, 0
2121, '1', 1, 1, 1, 1.589, 0.45, 0, 0, 0, 0, 1, 1, 0
2122, '1', 1, 1, 1, 4.577, 1.297, 0, 0, 0, 0, 1, 1, 0
2124, '1', 1, 1, 1, 14.491, 4.106, 0, 0, 0, 0, 1, 1, 0
2125, '1', 1, 1, 1, 2.761, 0.782, 0, 0, 0, 0, 1, 1, 0
2126, '1', 1, 1, 1, 9.691, 2.746, 0, 0, 0, 0, 1, 1, 0
2129, '1', 1, 1, 1, 4.516, 1.279, 0, 0, 0, 0, 1, 1, 0
2132, '1', 1, 1, 1, 8.129, 2.303, 0, 0, 0, 0, 1, 1, 0
2133, '1', 1, 1, 1, 3.866, 1.095, 0, 0, 0, 0, 1, 1, 0
3002, '1', 1, 1, 1, 73.64, 20.865, 0, 0, 0, 0, 1, 1, 0
3005, '1', 1, 1, 1, 4.79, 1.357, 0, 0, 0, 0, 1, 1, 0
3006, '1', 1, 1, 1, 4.794, 1.358, 0, 0, 0, 0, 1, 1, 0
3007, '1', 1, 1, 1, 9.764, 2.766, 0, 0, 0, 0, 1, 1, 0
3008, '1', 1, 1, 1, 12.925, 3.662, 0, 0, 0, 0, 1, 1, 0
3009, '1', 1, 1, 1, 8.182, 2.318, 0, 0, 0, 0, 1, 1, 0
3010, '1', 1, 1, 1, 3.048, 0.864, 0, 0, 0, 0, 1, 1, 0
3011, '1', 1, 1, 1, 17.707, 5.017, 0, 0, 0, 0, 1, 1, 0
3012, '1', 1, 1, 1, 0.368, 0.104, 0, 0, 0, 0, 1, 1, 0
3013, '1', 1, 1, 1, 42.123, 11.935, 0, 0, 0, 0, 1, 1, 0
3014, '1', 1, 1, 1, 14.356, 4.068, 0, 0, 0, 0, 1, 1, 0
3015, '1', 1, 1, 1, 3.5, 0.992, 0, 0, 0, 0, 1, 1, 0
3021, '1', 1, 1, 1, 1.267, 0.359, 0, 0, 0, 0, 1, 1, 0
3022, '1', 1, 1, 1, 16.045, 4.546, 0, 0, 0, 0, 1, 1, 0
3023, '1', 1, 1, 1, 6.791, 1.924, 0, 0, 0, 0, 1, 1, 0
3024, '1', 1, 1, 1, 6.61, 1.873, 0, 0, 0, 0, 1, 1, 0
3025, '1', 1, 1, 1, 8.922, 2.528, 0, 0, 0, 0, 1, 1, 0
3029, '1', 1, 1, 1, 3.175, 0.9, 0, 0, 0, 0, 1, 1, 0
3030, '1', 1, 1, 1, 84.642, 23.982, 0, 0, 0, 0, 1, 1, 0
3031, '1', 1, 1, 1, 9.613, 2.724, 0, 0, 0, 0, 1, 1, 0
3032, '1', 1, 1, 1, 47.543, 13.471, 0, 0, 0, 0, 1, 1, 0
3035, '1', 1, 1, 1, 2.261, 0.641, 0, 0, 0, 0, 1, 1, 0
3036, '1', 1, 1, 1, 3.786, 1.072, 0, 0, 0, 0, 1, 1, 0
3040, '1', 1, 1, 1, 9.531, 2.7, 0, 0, 0, 0, 1, 1, 0
3042, '1', 1, 1, 1, 5.712, 1.618, 0, 0, 0, 0, 1, 1, 0
3049, '1', 1, 1, 1, 6.906, 1.957, 0, 0, 0, 0, 1, 1, 0
3051, '1', 1, 1, 1, 94.801, 26.86, 0, 0, 0, 0, 1, 1, 0
3052, '1', 1, 1, 1, 5.27, 1.493, 0, 0, 0, 0, 1, 1, 0
3066, '1', 1, 1, 1, 14.378, 4.074, 0, 0, 0, 0, 1, 1, 0
3069, '1', 1, 1, 1, 2.488, 0.705, 0, 0, 0, 0, 1, 1, 0
3072, '1', 1, 1, 1, 3.905, 1.106, 0, 0, 0, 0, 1, 1, 0
3075, '1', 1, 1, 1, 7.949, 2.252, 0, 0, 0, 0, 1, 1, 0
3076, '1', 1, 1, 1, 7.043, 1.996, 0, 0, 0, 0, 1, 1, 0
3077, '1', 1, 1, 1, 44.797, 12.692, 0, 0, 0, 0, 1, 1, 0
3093, '1', 1, 1, 1, 3.292, 0.933, 0, 0, 0, 0, 1, 1, 0
3099, '1', 1, 1, 1, 7.881, 2.233, 0, 0, 0, 0, 1, 1, 0
3100, '1', 1, 1, 1, 5.563, 1.576, 0, 0, 0, 0, 1, 1, 0
3101, '1', 1, 1, 1, 6.154, 1.743, 0, 0, 0, 0, 1, 1, 0
3102, '1', 1, 1, 1, 49.103, 13.913, 0, 0, 0, 0, 1, 1, 0
3103, '1', 1, 1, 1, 25.654, 7.269, 0, 0, 0, 0, 1, 1, 0
3107, '1', 1, 1, 1, 9.701, 2.749, 0, 0, 0, 0, 1, 1, 0
3108, '1', 1, 1, 1, 15.349, 4.349, 0, 0, 0, 0, 1, 1, 0
3114, '1', 1, 1, 1, 64.145, 18.174, 0, 0, 0, 0, 1, 1, 0
3115, '1', 1, 1, 1, 6.249, 1.771, 0, 0, 0, 0, 1, 1, 0
3123, '1', 1, 1, 1, 43.108, 12.214, 0, 0, 0, 0, 1, 1, 0
3124, '1', 1, 1, 1, 42.111, 11.932, 0, 0, 0, 0, 1, 1, 0
3125, '1', 1, 1, 1, 59.545, 16.871, 0, 0, 0, 0, 1, 1, 0
3126, '1', 1, 1, 1, 6.497, 1.841, 0, 0, 0, 0, 1, 1, 0
3128, '1', 1, 1, 1, 1.84, 0.521, 0, 0, 0, 0, 1, 1, 0
3130, '1', 1, 1, 1, 60.13, 17.037, 0, 0, 0, 0, 1, 1, 0
3132, '1', 1, 1, 1, 6.24, 1.768, 0, 0, 0, 0, 1, 1, 0
3136, '1', 1, 1, 1, 30.639, 8.681, 0, 0, 0, 0, 1, 1, 0
3138, '1', 1, 1, 1, 7.143, 2.024, 0, 0, 0, 0, 1, 1, 0
3139, '1', 1, 1, 1, 9.733, 2.758, 0, 0, 0, 0, 1, 1, 0
3140, '1', 1, 1, 1, 0.145, 0.041, 0, 0, 0, 0, 1, 1, 0
3142, '1', 1, 1, 1, 4.612, 1.307, 0, 0, 0, 0, 1, 1, 0
3143, '1', 1, 1, 1, 3.754, 1.064, 0, 0, 0, 0, 1, 1, 0
3144, '1', 1, 1, 1, 3.626, 1.027, 0, 0, 0, 0, 1, 1, 0
3145, '1', 1, 1, 1, 1.918, 0.543, 0, 0, 0, 0, 1, 1, 0
3146, '1', 1, 1, 1, 7.853, 2.225, 0, 0, 0, 0, 1, 1, 0
3147, '1', 1, 1, 1, 22.679, 6.426, 0, 0, 0, 0, 1, 1, 0
4002, '1', 1, 1, 1, 0.703, 0.199, 0, 0, 0, 0, 1, 1, 0
4003, '1', 1, 1, 1, 88.733, 25.141, 0, 0, 0, 0, 1, 1, 0
4005, '1', 1, 1, 1, 114.418, 32.418, 0, 0, 0, 0, 1, 1, 0
4006, '1', 1, 1, 1, 1.92, 0.544, 0, 0, 0, 0, 1, 1, 0
4007, '1', 1, 1, 1, 128.024, 36.273, 0, 0, 0, 0, 1, 1, 0
4008, '1', 1, 1, 1, 22.65, 6.418, 0, 0, 0, 0, 1, 1, 0
4011, '1', 1, 1, 1, 11.188, 3.17, 0, 0, 0, 0, 1, 1, 0
4012, '1', 1, 1, 1, 9.578, 2.714, 0, 0, 0, 0, 1, 1, 0
4013, '1', 1, 1, 1, 64.375, 18.239, 0, 0, 0, 0, 1, 1, 0
4015, '1', 1, 1, 1, 111.398, 31.563, 0, 0, 0, 0, 1, 1, 0
4016, '1', 1, 1, 1, 4.354, 1.234, 0, 0, 0, 0, 1, 1, 0
4017, '1', 1, 1, 1, 62.432, 17.689, 0, 0, 0, 0, 1, 1, 0
4018, '1', 1, 1, 1, 4.975, 1.41, 0, 0, 0, 0, 1, 1, 0
4019, '1', 1, 1, 1, 94.683, 26.827, 0, 0, 0, 0, 1, 1, 0
4020, '1', 1, 1, 1, 82.125, 23.269, 0, 0, 0, 0, 1, 1, 0
4021, '1', 1, 1, 1, 22.286, 6.314, 0, 0, 0, 0, 1, 1, 0
4022, '1', 1, 1, 1, 3.879, 1.099, 0, 0, 0, 0, 1, 1, 0
4023, '1', 1, 1, 1, 3.53, 1, 0, 0, 0, 0, 1, 1, 0
4027, '1', 1, 1, 1, 45.392, 12.861, 0, 0, 0, 0, 1, 1, 0
4031, '1', 1, 1, 1, 1.916, 0.543, 0, 0, 0, 0, 1, 1, 0
4032, '1', 1, 1, 1, 63.705, 18.05, 0, 0, 0, 0, 1, 1, 0
4033, '1', 1, 1, 1, 88.006, 24.935, 0, 0, 0, 0, 1, 1, 0
4034, '1', 1, 1, 1, 26.239, 7.434, 0, 0, 0, 0, 1, 1, 0
4035, '1', 1, 1, 1, 55.182, 15.635, 0, 0, 0, 0, 1, 1, 0
4036, '1', 1, 1, 1, 24.447, 6.927, 0, 0, 0, 0, 1, 1, 0
4037, '1', 1, 1, 1, 20.022, 5.673, 0, 0, 0, 0, 1, 1, 0
4038, '1', 1, 1, 1, 58.07, 16.453, 0, 0, 0, 0, 1, 1, 0
4040, '1', 1, 1, 1, 157.305, 44.57, 0, 0, 0, 0, 1, 1, 0
4042, '1', 1, 1, 1, 149.996, 42.499, 0, 0, 0, 0, 1, 1, 0
4043, '1', 1, 1, 1, 1.725, 0.489, 0, 0, 0, 0, 1, 1, 0
4048, '1', 1, 1, 1, 9.135, 2.588, 0, 0, 0, 0, 1, 1, 0
...
0 / END OF LOAD DATA, BEGIN FIXED SHUNT DATA
0 / END OF FIXED SHUNT DATA, BEGIN GENERATOR DATA
1004, '1', 140.2, -30.38, 44.94, -30.38, 1.0203094, 0, 0, 0, 1.0, 0, 0, 1, 1, 1, 140.2, 0, 1, 1, 0, 1, 0, 1, 0, 1, 0, 1
1006, '1', 26.6, -4.94, 7.31, -4.94, 1, 0, 0, 0, 1.0, 0, 0, 1, 1, 1, 26.6, 0, 1, 1, 0, 1, 0, 1, 0, 1, 0, 1
1009, '1', 8.2, -11.88, 17.57, -11.88, 1.0103725, 0, 0, 0, 1.0, 0, 0, 1, 1, 1, 8.2, 0, 1, 1, 0, 1, 0, 1, 0, 1, 0, 1
1011, '1', 0, 0, 0, 0, 1.0445874, 0, 0, 0, 1.0, 0, 0, 1, 1, 1, 0, 0, 1, 1, 0, 1, 0, 1, 0, 1, 0, 1
1021, '1', 135.9, -28.73, 42.49, -28.73, 1, 0, 0, 0, 1.0, 0, 0, 1, 1, 1, 135.9, 0, 1, 1, 0, 1, 0, 1, 0, 1, 0, 1
1023, '1', 21.7, -25.92, 38.34, -25.92, 1.01, 0, 0, 0, 1.0, 0, 0, 1, 1, 1, 21.7, 0, 1, 1, 0, 1, 0, 1, 0, 1, 0, 1
1026, '1', 82.5, -17.88, 26.45, -17.88, 1, 0, 0, 0, 1.0, 0, 0, 1, 1, 1, 82.5, 0, 1, 1, 0, 1, 0, 1, 0, 1, 0, 1
1033, '1', 120.2, -40.03, 59.21, -40.03, 1.0133437, 0, 0, 0, 1.0, 0, 0, 1, 1, 1, 120.2, 0, 1, 1, 0, 1, 0, 1, 0, 1, 0, 1
1035, '1', 68.9, -12.96, 19.17, -12.96, 1, 0, 0, 0, 1.0, 0, 0, 1, 1, 1, 68.9, 0, 1, 1, 0, 1, 0, 1, 0, 1, 0, 1
1039, '1', 4.4, -21.24, 31.42, -21.24, 1, 0, 0, 0, 1.0, 0, 0, 1, 1, 1, 4.4, 0, 1, 1, 0, 1, 0, 1, 0, 1, 0, 1
1042, '1', 81.991, -1.129, 25.96, -17.55, 1.0012339, 0, 0, 0, 1.0, 0, 0, 1, 0, 1, 82.6, 0, 1, 1, 0, 1, 0, 1, 0, 1, 0, 1
1043, '1', 39.8, -8.47, 12.52, -8.47, 1, 0, 0, 0, 1.0, 0, 0, 1, 1, 1, 39.8, 0, 1, 1, 0, 1, 0, 1, 0, 1, 0, 1
1048, '1', 0, -9.473, 165.53, -36.1, 1.0095439, 0, 0, 0, 1.0, 0, 0, 1, 0, 1, 325.2, 97.56, 1, 1, 0, 1, 0, 1, 0, 1, 0, 1
1049, '1', 0, -0.955, 165.53, -36.1, 1.0095439, 0, 0, 0, 1.0, 0, 0, 1, 0, 1, 325.2, 97.56, 1, 1, 0, 1, 0, 1, 0, 1, 0, 1
1050, '1', 27.864316, -9.92, 45.5, -9.92, 1.00047, 0, 0, 0, 1.0, 0, 0, 1, 1, 1, 89.4, 26.82, 1, 1, 0, 1, 0, 1, 0, 1, 0, 1
1051, '1', 27.864316, -9.92, 45.5, -9.92, 1, 0, 0, 0, 1.0, 0, 0, 1, 1, 1, 89.4, 26.82, 1, 1, 0, 1, 0, 1, 0, 1, 0, 1
1052, '1', 27.864316, -9.92, 45.5, -9.92, 1.0024844, 0, 0, 0, 1.0, 0, 0, 1, 1, 1, 89.4, 26.82, 1, 1, 0, 1, 0, 1, 0, 1, 0, 1
1053, '1', 0, -19.85, 91.01, -19.85, 1.0166593, 0, 0, 0, 1.0, 0, 0, 1, 0, 1, 178.8, 53.64, 1, 1, 0, 1, 0, 1, 0, 1, 0, 1
1057, '1', 50.701, -10.97, 25.56, -17.28, 1.015, 0, 0, 0, 1.0, 0, 0, 1, 0, 1, 51.3, 0, 1, 1, 0, 1, 0, 1, 0, 1, 0, 1
1059, '1', 0, 2.85, 2.85, -0.62, 1.0257334, 0, 0, 0, 1.0, 0, 0, 1, 0, 1, 5.6, 1.68, 1, 1, 0, 1, 0, 1, 0, 1, 0, 1
1060, '1', 0, 1.02, 1.02, -0.22, 1.0257334, 0, 0, 0, 1.0, 0, 0, 1, 0, 1, 2, 0.6, 1, 1, 0, 1, 0, 1, 0, 1, 0, 1
1062, '1', 1.493, 0, 0, 0, 1.0054954, 0, 0, 0, 1.0, 0, 0, 1, 0, 1, 1.5, 0.45, 1, 1, 0, 1, 0, 1, 0, 1, 0, 1
1063, '1', 178.768, 0, 0, 0, 1.0054954, 0, 0, 0, 1.0, 0, 0, 1, 0, 1, 230, 69, 1, 1, 0, 1, 0, 1, 0, 1, 0, 1
1066, '1', 60.3, -20.52, 30.35, -20.52, 1, 0, 0, 0, 1.0, 0, 0, 1, 1, 1, 60.3, 0, 1, 1, 0, 1, 0, 1, 0, 1, 0, 1
1070, '1', 116.8, -23.11, 34.19, -23.11, 1.04, 0, 0, 0, 1.0, 0, 0, 1, 1, 1, 116.8, 0, 1, 1, 0, 1, 0, 1, 0, 1, 0, 1
1072, '1', 59.884345, -21.33, 97.8, -21.33, 1.01, 0, 0, 0, 1.0, 0, 0, 1, 1, 1, 192.13, 57.64, 1, 1, 0, 1, 0, 1, 0, 1, 0, 1
1073, '1', 59.884345, -21.33, 97.8, -21.33, 1.01, 0, 0, 0, 1.0, 0, 0, 1, 1, 1, 192.13, 57.64, 1, 1, 0, 1, 0, 1, 0, 1, 0, 1
1074, '1', 59.884345, -21.33, 97.8, -21.33, 1.01, 0, 0, 0, 1.0, 0, 0, 1, 1, 1, 192.13, 57.64, 1, 1, 0, 1, 0, 1, 0, 1, 0, 1
1075, '1', 59.884345, -21.33, 97.8, -21.33, 1.01, 0, 0, 0, 1.0, 0, 0, 1, 1, 1, 192.13, 57.64, 1, 1, 0, 1, 0, 1, 0, 1, 0, 1
1076, '1', 0, -1.511, 97.8, -21.33, 1.0115546, 0, 0, 0, 1.0, 0, 0, 1, 0, 1, 192.13, 57.64, 1, 1, 0, 1, 0, 1, 0, 1, 0, 1
1077, '1', 0, -1.094, 97.8, -21.33, 1.0115546, 0, 0, 0, 1.0, 0, 0, 1, 0, 1, 192.13, 57.64, 1, 1, 0, 1, 0, 1, 0, 1, 0, 1
1078, '1', 29.765573, -10.6, 48.61, -10.6, 1.01, 0, 0, 0, 1.0, 0, 0, 1, 1, 1, 95.5, 28.65, 1, 1, 0, 1, 0, 1, 0, 1, 0, 1
1079, '1', 29.765573, -10.6, 48.61, -10.6, 1.047827, 0, 0, 0, 1.0, 0, 0, 1, 1, 1, 95.5, 28.65, 1, 1, 0, 1, 0, 1, 0, 1, 0, 1
1080, '1', 29.765573, -10.6, 48.61, -10.6, 1.01, 0, 0, 0, 1.0, 0, 0, 1, 1, 1, 95.5, 28.65, 1, 1, 0, 1, 0, 1, 0, 1, 0, 1
1081, '1', 0, -23.361, 145.83, -31.8, 1.0182164, 0, 0, 0, 1.0, 0, 0, 1, 0, 1, 286.5, 85.95, 1, 1, 0, 1, 0, 1, 0, 1, 0, 1
1082, '1', 92.8, -21.6, 31.95, -21.6, 1.0167713, 0, 0, 0, 1.0, 0, 0, 1, 1, 1, 92.8, 0, 1, 1, 0, 1, 0, 1, 0, 1, 0, 1
1084, '1', 82.3, -16.63, 24.6, -16.63, 1.0228682, 0, 0, 0, 1.0, 0, 0, 1, 1, 1, 82.3, 0, 1, 1, 0, 1, 0, 1, 0, 1, 0, 1
1088, '1', 34.1, -10.8, 15.97, -10.8, 1, 0, 0, 0, 1.0, 0, 0, 1, 1, 1, 34.1, 0, 1, 1, 0, 1, 0, 1, 0, 1, 0, 1
1090, '1', 120.8, -21.96, 32.48, -21.96, 1.02, 0, 0, 0, 1.0, 0, 0, 1, 1, 1, 120.8, 0, 1, 1, 0, 1, 0, 1, 0, 1, 0, 1
1090, '2', 28.5, -5.18, 7.67, -5.18, 1.02, 0, 0, 0, 1.0, 0, 0, 1, 1, 1, 28.5, 0, 1, 1, 0, 1, 0, 1, 0, 1, 0, 1
2004, '1', 0, 0, 199.43, -43.49, 1.024833, 0, 0, 0, 1.0, 0, 0, 1, 0, 1, 391.8, 117.54, 1, 1, 0, 1, 0, 1, 0, 1, 0, 1
2005, '1', 0, 0, 199.43, -43.49, 1.024833, 0, 0, 0, 1.0, 0, 0, 1, 0, 1, 391.8, 117.54, 1, 1, 0, 1, 0, 1, 0, 1, 0, 1
2006, '1', 0, 0, 199.43, -43.49, 1.024833, 0, 0, 0, 1.0, 0, 0, 1, 0, 1, 391.8, 117.54, 1, 1, 0, 1, 0, 1, 0, 1, 0, 1
2013, '1', 70.5, -28.89, 42.73, -28.89, 1.0312713, 0, 0, 0, 1.0, 0, 0, 1, 1, 1, 70.5, 0, 1, 1, 0, 1, 0, 1, 0, 1, 0, 1
2019, '1', 24.512, 22.742, 46.43, -31.39, 1.0244006, 0, 0, 0, 1.0, 0, 0, 1, 0, 1, 25.6, 0, 1, 1, 0, 1, 0, 1, 0, 1, 0, 1
2023, '1', 83.33, -9.25, 42.42, -9.25, 1.0231794, 0, 0, 0, 1.0, 0, 0, 1, 1, 1, 83.33, 25, 1, 1, 0, 1, 0, 1, 0, 1, 0, 1
2024, '1', 51.946937, -18.5, 84.83, -18.5, 1.0219148, 0, 0, 0, 1.0, 0, 0, 1, 1, 1, 166.67, 50, 1, 1, 0, 1, 0, 1, 0, 1, 0, 1
2042, '1', 13.3, -11.46, 16.95, -11.46, 1.0173356, 0, 0, 0, 1.0, 0, 0, 1, 1, 1, 13.3, 0, 1, 1, 0, 1, 0, 1, 0, 1, 0, 1
2056, '1', 5.97, -0.73, 2.8, -0.73, 1.0296805, 0, 0, 0, 1.0, 0, 0, 1, 0, 1, 6, 1.8, 1, 1, 0, 1, 0, 1, 0, 1, 0, 1
2057, '1', 224.4106, -87.84, 335.52, -87.84, 1.0204787, 0, 0, 0, 1.0, 0, 0, 1, 1, 1, 720, 216, 1, 1, 0, 1, 0, 1, 0, 1, 0, 1
2059, '1', 59.8, -11.52, 17.04, -11.52, 1.0157561, 0, 0, 0, 1.0, 0, 0, 1, 1, 1, 59.8, 0, 1, 1, 0, 1, 0, 1, 0, 1, 0, 1
2062, '1', 56.5, -19.5, 28.84, -19.5, 1.02, 0, 0, 0, 1.0, 0, 0, 1, 1, 1, 56.5, 0, 1, 1, 0, 1, 0, 1, 0, 1, 0, 1
2071, '1', 106.9, -21.6, 31.95, -21.6, 1.0098713, 0, 0, 0, 1.0, 0, 0, 1, 1, 1, 106.9, 0, 1, 1, 0, 1, 0, 1, 0, 1, 0, 1
2076, '1', 25.4, -4.32, 6.39, -4.32, 1.030398, 0, 0, 0, 1.0, 0, 0, 1, 1, 1, 25.4, 0, 1, 1, 0, 1, 0, 1, 0, 1, 0, 1
2078, '1', 89.8, -16.2, 23.96, -16.2, 1.02, 0, 0, 0, 1.0, 0, 0, 1, 1, 1, 89.8, 0, 1, 1, 0, 1, 0, 1, 0, 1, 0, 1
2083, '1', 20, -2.22, 10.18, -2.22, 1.02, 0, 0, 0, 1.0, 0, 0, 1, 1, 1, 20, 6, 1, 1, 0, 1, 0, 1, 0, 1, 0, 1
2084, '1', 19.9, -0.654, 10.18, -2.22, 1.0207045, 0, 0, 0, 1.0, 0, 0, 1, 0, 1, 20, 6, 1, 1, 0, 1, 0, 1, 0, 1, 0, 1
2085, '1', 39.8, -1.651, 20.36, -4.44, 1.0207045, 0, 0, 0, 1.0, 0, 0, 1, 0, 1, 40, 12, 1, 1, 0, 1, 0, 1, 0, 1, 0, 1
2089, '1', 37, -9.73, 14.4, -9.73, 1.0097795, 0, 0, 0, 1.0, 0, 0, 1, 1, 1, 37, 0, 1, 1, 0, 1, 0, 1, 0, 1, 0, 1
2094, '1', 1.75, -1.44, 2.13, -1.44, 1.0284724, 0, 0, 0, 1.0, 0, 0, 1, 0, 1, 1.8, 0, 1, 1, 0, 1, 0, 1, 0, 1, 0, 1
2095, '1', 14.003, -11.45, 16.93, -11.45, 1.0284724, 0, 0, 0, 1.0, 0, 0, 1, 0, 1, 14.4, 0, 1, 1, 0, 1, 0, 1, 0, 1, 0, 1
2099, '1', 3.1, -1.44, 2.13, -1.44, 1.0007457, 0, 0, 0, 1.0, 0, 0, 1, 1, 1, 3.1, 0, 1, 1, 0, 1, 0, 1, 0, 1, 0, 1
2100, '1', 47.1, -21.6, 31.95, -21.6, 1.0134975, 0, 0, 0, 1.0, 0, 0, 1, 1, 1, 47.1, 0, 1, 1, 0, 1, 0, 1, 0, 1, 0, 1
2103, '1', 0, 0, 136.28, -29.72, 1.0238623, 0, 0, 0, 1.0, 0, 0, 1, 0, 1, 267.73, 80.32, 1, 1, 0, 1, 0, 1, 0, 1, 0, 1
2104, '1', 0, 0, 136.28, -29.72, 1.0238623, 0, 0, 0, 1.0, 0, 0, 1, 0, 1, 267.73, 80.32, 1, 1, 0, 1, 0, 1, 0, 1, 0, 1
2105, '1', 0, 0, 136.28, -29.72, 1.0238623, 0, 0, 0, 1.0, 0, 0, 1, 0, 1, 267.73, 80.32, 1, 1, 0, 1, 0, 1, 0, 1, 0, 1
2115, '1', 57.567786, -20.5, 94.02, -20.5, 1.0186822, 0, 0, 0, 1.0, 0, 0, 1, 1, 1, 184.72, 55.41, 1, 1, 0, 1, 0, 1, 0, 1, 0, 1
2116, '1', 57.567786, -20.5, 94.02, -20.5, 1.0222848, 0, 0, 0, 1.0, 0, 0, 1, 1, 1, 184.72, 55.41, 1, 1, 0, 1, 0, 1, 0, 1, 0, 1
2117, '1', 57.567786, -20.5, 94.02, -20.5, 1.0171906, 0, 0, 0, 1.0, 0, 0, 1, 1, 1, 184.72, 55.41, 1, 1, 0, 1, 0, 1, 0, 1, 0, 1
2118, '1', 57.567786, -20.5, 94.02, -20.5, 1.0162661, 0, 0, 0, 1.0, 0, 0, 1, 1, 1, 184.72, 55.41, 1, 1, 0, 1, 0, 1, 0, 1, 0, 1
2119, '1', 57.567786, -20.5, 94.02, -20.5, 1.0214183, 0, 0, 0, 1.0, 0, 0, 1, 1, 1, 184.72, 55.41, 1, 1, 0, 1, 0, 1, 0, 1, 0, 1
2120, '1', 57.567786, -20.5, 94.02, -20.5, 1.0167172, 0, 0, 0, 1.0, 0, 0, 1, 1, 1, 184.72, 55.41, 1, 1, 0, 1, 0, 1, 0, 1, 0, 1
2123, '1', 20.5, -26.16, 38.7, -26.16, 1.024063, 0, 0, 0, 1.0, 0, 0, 1, 1, 1, 20.5, 0, 1, 1, 0, 1, 0, 1, 0, 1, 0, 1
2127, '1', 10.4, 28.230041, 61.47, -41.56, 1.04, 0, 0, 0, 1.0, 0, 0, 1, 1, 1, 10.4, 0, 1, 1, 0, 1, 0, 1, 0, 1, 0, 1
3004, '1', 30.2, -5.4, 7.99, -5.4, 1.009046, 0, 0, 0, 1.0, 0, 0, 1, 1, 1, 30.2, 0, 1, 1, 0, 1, 0, 1, 0, 1, 0, 1
3017, '1', 95.8, -24.41, 36.1, -24.41, 1.01, 0, 0, 0, 1.0, 0, 0, 1, 1, 1, 95.8, 0, 1, 1, 0, 1, 0, 1, 0, 1, 0, 1
3020, '1', 125.9, -21.6, 31.95, -21.6, 1.03, 0, 0, 0, 1.0, 0, 0, 1, 1, 1, 125.9, 0, 1, 1, 0, 1, 0, 1, 0, 1, 0, 1
3028, '1', 92, -28.8, 42.6, -28.8, 1.04, 0, 0, 0, 1.0, 0, 0, 1, 1, 1, 92, 0, 1, 1, 0, 1, 0, 1, 0, 1, 0, 1
3034, '1', 49, -18.79, 27.8, -18.79, 1.03, 0, 0, 0, 1.0, 0, 0, 1, 1, 1, 49, 0, 1, 1, 0, 1, 0, 1, 0, 1, 0, 1
3039, '1', 85.5, -30.1, 44.52, -30.1, 1.04, 0, 0, 0, 1.0, 0, 0, 1, 1, 1, 85.5, 0, 1, 1, 0, 1, 0, 1, 0, 1, 0, 1
3043, '1', 0, -0.14, 0.66, -0.14, 1.0338339, 0, 0, 0, 1.0, 0, 0, 1, 0, 1, 1.3, 0.39, 1, 1, 0, 1, 0, 1, 0, 1, 0, 1
3044, '1', 0, -0.545, 45.5, -9.92, 1.0338339, 0, 0, 0, 1.0, 0, 0, 1, 0, 1, 89.4, 26.82, 1, 1, 0, 1, 0, 1, 0, 1, 0, 1
3045, '1', 0, 0, 227.52, -49.62, 1.0338339, 0, 0, 0, 1.0, 0, 0, 1, 0, 1, 447, 134.1, 1, 1, 0, 1, 0, 1, 0, 1, 0, 1
3048, '1', 161.6, -34.7, 51.33, -34.7, 1.0454886, 0, 0, 0, 1.0, 0, 0, 1, 1, 1, 161.6, 0, 1, 1, 0, 1, 0, 1, 0, 1, 0, 1
3055, '1', 101.4, -35.3, 52.22, -35.3, 1.04, 0, 0, 0, 1.0, 0, 0, 1, 1, 1, 101.4, 0, 1, 1, 0, 1, 0, 1, 0, 1, 0, 1
3056, '1', 101.4, -35.3, 52.22, -35.3, 1.04, 0, 0, 0, 1.0, 0, 0, 1, 1, 1, 101.4, 0, 1, 1, 0, 1, 0, 1, 0, 1, 0, 1
3057, '1', 101.4, -35.3, 52.22, -35.3, 1.04, 0, 0, 0, 1.0, 0, 0, 1, 1, 1, 101.4, 0, 1, 1, 0, 1, 0, 1, 0, 1, 0, 1
3060, '1', 95.3, -23.85, 35.28, -23.85, 1.04, 0, 0, 0, 1.0, 0, 0, 1, 1, 1, 95.3, 0, 1, 1, 0, 1, 0, 1, 0, 1, 0, 1
3061, '1', 4.8, -23.85, 35.28, -23.85, 1.04, 0, 0, 0, 1.0, 0, 0, 1, 1, 1, 4.8, 0, 1, 1, 0, 1, 0, 1, 0, 1, 0, 1
3062, '1', 95.3, -23.85, 35.28, -23.85, 1.04, 0, 0, 0, 1.0, 0, 0, 1, 1, 1, 95.3, 0, 1, 1, 0, 1, 0, 1, 0, 1, 0, 1
3063, '1', 95.3, -23.85, 35.28, -23.85, 1.04, 0, 0, 0, 1.0, 0, 0, 1, 1, 1, 95.3, 0, 1, 1, 0, 1, 0, 1, 0, 1, 0, 1
3065, '1', 48.3, -11.59, 17.15, -11.59, 1, 0, 0, 0, 1.0, 0, 0, 1, 1, 1, 48.3, 0, 1, 1, 0, 1, 0, 1, 0, 1, 0, 1
3068, '1', 103.8, -21.6, 31.95, -21.6, 1.04, 0, 0, 0, 1.0, 0, 0, 1, 1, 1, 103.8, 0, 1, 1, 0, 1, 0, 1, 0, 1, 0, 1
3071, '1', 52, -24.51, 36.25, -24.51, 1.005073, 0, 0, 0, 1.0, 0, 0, 1, 1, 1, 52, 0, 1, 1, 0, 1, 0, 1, 0, 1, 0, 1
3074, '1', 29.2, -14.37, 21.26, -14.37, 1, 0, 0, 0, 1.0, 0, 0, 1, 1, 1, 29.2, 0, 1, 1, 0, 1, 0, 1, 0, 1, 0, 1
3081, '1', 199.3, -35.86, 53.04, -35.86, 1.04, 0, 0, 0, 1.0, 0, 0, 1, 1, 1, 199.3, 0, 1, 1, 0, 1, 0, 1, 0, 1, 0, 1
3084, '1', 208, -33.48, 49.52, -33.48, 1, 0, 0, 0, 1.0, 0, 0, 1, 1, 1, 208, 0, 1, 1, 0, 1, 0, 1, 0, 1, 0, 1
3086, '1', 23.1, -10.8, 15.97, -10.8, 1, 0, 0, 0, 1.0, 0, 0, 1, 1, 1, 23.1, 0, 1, 1, 0, 1, 0, 1, 0, 1, 0, 1
3087, '1', 22.726, -3.567, 15.97, -10.8, 1.0092564, 0, 0, 0, 1.0, 0, 0, 1, 0, 1, 23.1, 0, 1, 1, 0, 1, 0, 1, 0, 1, 0, 1
3092, '1', 92.5, -28.8, 42.6, -28.8, 1.04, 0, 0, 0, 1.0, 0, 0, 1, 1, 1, 92.5, 0, 1, 1, 0, 1, 0, 1, 0, 1, 0, 1
3095, '1', 112.2, -17.37, 25.69, -17.37, 1.04, 0, 0, 0, 1.0, 0, 0, 1, 1, 1, 112.2, 0, 1, 1, 0, 1, 0, 1, 0, 1, 0, 1
3098, '1', 128.7, -23.04, 34.08, -23.04, 1.04, 0, 0, 0, 1.0, 0, 0, 1, 1, 1, 128.7, 0, 1, 1, 0, 1, 0, 1, 0, 1, 0, 1
3105, '1', 0, -0.74, 17.071, -0.74, 1.0163505, 0, 0, 0, 1.0, 0, 0, 1, 1, 1, 0, 0, 1, 1, 0, 1, 0, 1, 0, 1, 0, 1
3106, '1', 0, -2.69, 62.477, -2.69, 1.0121238, 0, 0, 0, 1.0, 0, 0, 1, 1, 1, 0, 0, 1, 1, 0, 1, 0, 1, 0, 1, 0, 1
3110, '1', 63.8, -12.1, 17.89, -12.1, 1.04, 0, 0, 0, 1.0, 0, 0, 1, 1, 1, 63.8, 0, 1, 1, 0, 1, 0, 1, 0, 1, 0, 1
3112, '1', 74.1, -10.77, 15.93, -10.77, 1, 0, 0, 0, 1.0, 0, 0, 1, 1, 1, 74.1, 0, 1, 1, 0, 1, 0, 1, 0, 1, 0, 1
3113, '1', 31.2, -10.77, 15.93, -10.77, 1, 0, 0, 0, 1.0, 0, 0, 1, 1, 1, 31.2, 0, 1, 1, 0, 1, 0, 1, 0, 1, 0, 1
3117, '1', 49.9, -9.07, 13.42, -9.07, 1, 0, 0, 0, 1.0, 0, 0, 1, 1, 1, 49.9, 0, 1, 1, 0, 1, 0, 1, 0, 1, 0, 1
3118, '1', 67.1, -17.28, 25.56, -17.28, 1, 0, 0, 0, 1.0, 0, 0, 1, 1, 1, 67.1, 0, 1, 1, 0, 1, 0, 1, 0, 1, 0, 1
3120, '1', 8.034, 0, 0, 0, 1.0132197, 0, 0, 0, 1.0, 0, 0, 1, 1, 1, 8.034, 8.034, 1, 1, 0, 1, 0, 1, 0, 1, 0, 1
3122, '1', 139.3, -28.37, 41.96, -28.37, 1, 0, 0, 0, 1.0, 0, 0, 1, 1, 1, 139.3, 0, 1, 1, 0, 1, 0, 1, 0, 1, 0, 1
3127, '1', 75.7, -19.44, 28.76, -19.44, 1.0127847, 0, 0, 0, 1.0, 0, 0, 1, 1, 1, 75.7, 0, 1, 1, 0, 1, 0, 1, 0, 1, 0, 1
3129, '1', 46.9, -18.22, 26.94, -18.22, 1.0076322, 0, 0, 0, 1.0, 0, 0, 1, 1, 1, 46.9, 0, 1, 1, 0, 1, 0, 1, 0, 1, 0, 1
3131, '1', 103.6, -16.42, 24.28, -16.42, 1.02, 0, 0, 0, 1.0, 0, 0, 1, 1, 1, 103.6, 0, 1, 1, 0, 1, 0, 1, 0, 1, 0, 1
3133, '1', 0, 3.181, 26.11, -5.69, 1.0243486, 0, 0, 0, 1.0, 0, 0, 1, 0, 1, 51.3, 15.39, 1, 1, 0, 1, 0, 1, 0, 1, 0, 1
3133, '2', 0, 3.181, 26.11, -5.69, 1.0243486, 0, 0, 0, 1.0, 0, 0, 1, 0, 1, 51.3, 15.39, 1, 1, 0, 1, 0, 1, 0, 1, 0, 1
3133, '3', 0, 3.181, 26.11, -5.69, 1.0243486, 0, 0, 0, 1.0, 0, 0, 1, 0, 1, 51.3, 15.39, 1, 1, 0, 1, 0, 1, 0, 1, 0, 1
3137, '1', 90.1, -14.57, 21.56, -14.57, 1.0205999, 0, 0, 0, 1.0, 0, 0, 1, 1, 1, 90.1, 0, 1, 1, 0, 1, 0, 1, 0, 1, 0, 1
3141, '1', 59.6, -13.18, 19.49, -13.18, 1.0146241, 0, 0, 0, 1.0, 0, 0, 1, 1, 1, 59.6, 0, 1, 1, 0, 1, 0, 1, 0, 1, 0, 1
4010, '1', 67.3, -29.03, 42.94, -29.03, 1.03, 0, 0, 0, 1.0, 0, 0, 1, 1, 1, 67.3, 0, 1, 1, 0, 1, 0, 1, 0, 1, 0, 1
4026, '1', 127.78937, -50.02, 191.06, -50.02, 1.03, 0, 0, 0, 1.0, 0, 0, 1, 1, 1, 410, 123, 1, 1, 0, 1, 0, 1, 0, 1, 0, 1
4030, '1', 193.9905, -75.93, 290.04, -75.93, 1.01, 0, 0, 0, 1.0, 0, 0, 1, 1, 1, 622.4, 186.72, 1, 1, 0, 1, 0, 1, 0, 1, 0, 1
4045, '1', 0, -1.54, 35.862, -1.54, 1.02, 0, 0, 0, 1.0, 0, 0, 1, 1, 1, 0, 0, 1, 1, 0, 1, 0, 1, 0, 1, 0, 1
4046, '1', 0, -0.47, 10.936, -0.47, 1.02, 0, 0, 0, 1.0, 0, 0, 1, 1, 1, 0, 0, 1, 1, 0, 1, 0, 1, 0, 1, 0, 1
4047, '1', 0, -3.23, 75.102, -3.23, 1.02, 0, 0, 0, 1.0, 0, 0, 1, 1, 1, 0, 0, 1, 1, 0, 1, 0, 1, 0, 1, 0, 1
4050, '1', 9.4, -28.8, 42.6, -28.8, 1, 0, 0, 0, 1.0, 0, 0, 1, 1, 1, 9.4, 0, 1, 1, 0, 1, 0, 1, 0, 1, 0, 1
4052, '1', 44.2, -4.91, 22.5, -4.91, 1.0394266, 0, 0, 0, 1.0, 0, 0, 1, 1, 1, 44.2, 13.26, 1, 1, 0, 1, 0, 1, 0, 1, 0, 1
4058, '1', 44.88212, -15.98, 73.3, -15.98, 1.03, 0, 0, 0, 1.0, 0, 0, 1, 1, 1, 144, 43.2, 1, 1, 0, 1, 0, 1, 0, 1, 0, 1
4059, '1', 44.88212, -15.98, 73.3, -15.98, 1.03, 0, 0, 0, 1.0, 0, 0, 1, 1, 1, 144, 43.2, 1, 1, 0, 1, 0, 1, 0, 1, 0, 1
4060, '1', 44.88212, -15.98, 73.3, -15.98, 1.03, 0, 0, 0, 1.0, 0, 0, 1, 1, 1, 144, 43.2, 1, 1, 0, 1, 0, 1, 0, 1, 0, 1
4061, '1', 53.713054, -19.13, 87.72, -19.13, 1.03, 0, 0, 0, 1.0, 0, 0, 1, 1, 1, 172.33, 51.7, 1, 1, 0, 1, 0, 1, 0, 1, 0, 1
4062, '1', 53.713054, -19.13, 87.72, -19.13, 1.03, 0, 0, 0, 1.0, 0, 0, 1, 1, 1, 172.33, 51.7, 1, 1, 0, 1, 0, 1, 0, 1, 0, 1
4063, '1', 53.713054, -19.13, 87.72, -19.13, 1.03, 0, 0, 0, 1.0, 0, 0, 1, 1, 1, 172.33, 51.7, 1, 1, 0, 1, 0, 1, 0, 1, 0, 1
4065, '1', 47, -5.22, 23.92, -5.22, 1.02, 0, 0, 0, 1.0, 0, 0, 1, 1, 1, 47, 14.1, 1, 1, 0, 1, 0, 1, 0, 1, 0, 1
4075, '1', 0, 25.07, 89.75, -19.57, 1.0141537, 0, 0, 0, 1.0, 0, 0, 1, 0, 1, 176.33, 52.9, 1, 1, 0, 1, 0, 1, 0, 1, 0, 1
4076, '1', 54.959779, -19.57, 89.75, -19.57, 1.03, 0, 0, 0, 1.0, 0, 0, 1, 1, 1, 176.33, 52.9, 1, 1, 0, 1, 0, 1, 0, 1, 0, 1
4077, '1', 54.959779, -19.57, 89.75, -19.57, 1.03, 0, 0, 0, 1.0, 0, 0, 1, 1, 1, 176.33, 52.9, 1, 1, 0, 1, 0, 1, 0, 1, 0, 1
4082, '1', 75.86325, -27.02, 123.89, -27.02, 1.04, 0, 0, 0, 1.0, 0, 0, 1, 1, 1, 243.4, 73.02, 1, 1, 0, 1, 0, 1, 0, 1, 0, 1
4083, '1', 75.86325, -27.02, 123.89, -27.02, 1.04, 0, 0, 0, 1.0, 0, 0, 1, 1, 1, 243.4, 73.02, 1, 1, 0, 1, 0, 1, 0, 1, 0, 1
4084, '1', 75.86325, -27.02, 123.89, -27.02, 1.04, 0, 0, 0, 1.0, 0, 0, 1, 1, 1, 243.4, 73.02, 1, 1, 0, 1, 0, 1, 0, 1, 0, 1
4085, '1', 109.71185, -39.07, 179.17, -39.07, 1.04, 0, 0, 0, 1.0, 0, 0, 1, 1, 1, 352, 105.6, 1, 1, 0, 1, 0, 1, 0, 1, 0, 1
4090, '1', 1.393, 0.115, 0.65, -0.17, 1.0081112, 0, 0, 0, 1.0, 0, 0, 1, 0, 1, 1.4, 0.42, 1, 1, 0, 1, 0, 1, 0, 1, 0, 1
4091, '1', 17.194513, -2.87, 10.95, -2.87, 1.01, 0, 0, 0, 1.0, 0, 0, 1, 1, 1, 23.5, 7.05, 1, 1, 0, 1, 0, 1, 0, 1, 0, 1
4092, '1', 7.562, 0.506, 3.54, -0.93, 1.0081112, 0, 0, 0, 1.0, 0, 0, 1, 0, 1, 7.6, 2.28, 1, 1, 0, 1, 0, 1, 0, 1, 0, 1
4093, '1', 16.567079, -3.42, 13.05, -3.42, 1.01, 0, 0, 0, 1.0, 0, 0, 1, 1, 1, 28, 8.4, 1, 1, 0, 1, 0, 1, 0, 1, 0, 1
4094, '1', 16.567079, -3.42, 13.05, -3.42, 1.01, 0, 0, 0, 1.0, 0, 0, 1, 1, 1, 28, 8.4, 1, 1, 0, 1, 0, 1, 0, 1, 0, 1
4095, '1', 16.567079, -3.42, 13.05, -3.42, 1.01, 0, 0, 0, 1.0, 0, 0, 1, 1, 1, 28, 8.4, 1, 1, 0, 1, 0, 1, 0, 1, 0, 1
4096, '1', 27.86, 0.229, 13.05, -3.42, 1.0081112, 0, 0, 0, 1.0, 0, 0, 1, 0, 1, 28, 8.4, 1, 1, 0, 1, 0, 1, 0, 1, 0, 1
4097, '1', 16.567079, -3.42, 13.05, -3.42, 1.01, 0, 0, 0, 1.0, 0, 0, 1, 1, 1, 28, 8.4, 1, 1, 0, 1, 0, 1, 0, 1, 0, 1
4098, '1', 27.86, -0.056, 13.05, -3.42, 1.0081112, 0, 0, 0, 1.0, 0, 0, 1, 0, 1, 28, 8.4, 1, 1, 0, 1, 0, 1, 0, 1, 0, 1
4105, '1', 39.1, -25.92, 38.34, -25.92, 1.01, 0, 0, 0, 1.0, 0, 0, 1, 1, 1, 39.1, 0, 1, 1, 0, 1, 0, 1, 0, 1, 0, 1
4115, '1', 41.079607, -14.63, 67.09, -14.63, 1.04, 0, 0, 0, 1.0, 0, 0, 1, 1, 1, 131.8, 39.54, 1, 1, 0, 1, 0, 1, 0, 1, 0, 1
4116, '1', 41.079607, -14.63, 67.09, -14.63, 1.04, 0, 0, 0, 1.0, 0, 0, 1, 1, 1, 131.8, 39.54, 1, 1, 0, 1, 0, 1, 0, 1, 0, 1
4133, '1', 0, -3.73, 17.1, -3.73, 1.015, 0, 0, 0, 1.0, 0, 0, 1, 0, 1, 33.6, 10.08, 1, 1, 0, 1, 0, 1, 0, 1, 0, 1
4134, '1', 10.472495, -3.73, 17.1, -3.73, 1.009644, 0, 0, 0, 1.0, 0, 0, 1, 1, 1, 33.6, 10.08, 1, 1, 0, 1, 0, 1, 0, 1, 0, 1
4135, '1', 10.472495, -3.73, 17.1, -3.73, 1.0100402, 0, 0, 0, 1.0, 0, 0, 1, 1, 1, 33.6, 10.08, 1, 1, 0, 1, 0, 1, 0, 1, 0, 1
4136, '1', 10.472495, -3.73, 17.1, -3.73, 1.0083361, 0, 0, 0, 1.0, 0, 0, 1, 1, 1, 33.6, 10.08, 1, 1, 0, 1, 0, 1, 0, 1, 0, 1
4137, '1', 0, -7.46, 34.2, -7.46, 1.015, 0, 0, 0, 1.0, 0, 0, 1, 0, 1, 67.2, 20.16, 1, 1, 0, 1, 0, 1, 0, 1, 0, 1
4138, '1', 0, -7.33, 33.59, -7.33, 1.015, 0, 0, 0, 1.0, 0, 0, 1, 0, 1, 66, 19.8, 1, 1, 0, 1, 0, 1, 0, 1, 0, 1
4142, '1', 22.6, -27.07, 40.04, -27.07, 1.04, 0, 0, 0, 1.0, 0, 0, 1, 1, 1, 22.6, 0, 1, 1, 0, 1, 0, 1, 0, 1, 0, 1
4153, '1', 23.1, -40.78, 60.32, -40.78, 1.0368026, 0, 0, 0, 1.0, 0, 0, 1, 1, 1, 23.1, 0, 1, 1, 0, 1, 0, 1, 0, 1, 0, 1
4160, '1', 61.640228, -21.95, 100.66, -21.95, 1.03, 0, 0, 0, 1.0, 0, 0, 1, 1, 1, 197.77, 59.33, 1, 1, 0, 1, 0, 1, 0, 1, 0, 1
4161, '1', 61.640228, -21.95, 100.66, -21.95, 1.03, 0, 0, 0, 1.0, 0, 0, 1, 1, 1, 197.77, 59.33, 1, 1, 0, 1, 0, 1, 0, 1, 0, 1
4162, '1', 61.640228, -21.95, 100.66, -21.95, 1.03, 0, 0, 0, 1.0, 0, 0, 1, 1, 1, 197.77, 59.33, 1, 1, 0, 1, 0, 1, 0, 1, 0, 1
4163, '1', 8.955, 4.58, 4.58, -1, 1.0182234, 0, 0, 0, 1.0, 0, 0, 1, 0, 1, 9, 2.7, 1, 1, 0, 1, 0, 1, 0, 1, 0, 1
4166, '1', 16.4, -28.94, 42.81, -28.94, 1.0089812, 0, 0, 0, 1.0, 0, 0, 1, 1, 1, 16.4, 0, 1, 1, 0, 1, 0, 1, 0, 1, 0, 1
4177, '1', 148.6, -21.6, 31.95, -21.6, 1.04, 0, 0, 0, 1.0, 0, 0, 1, 1, 1, 148.6, 0, 1, 1, 0, 1, 0, 1, 0, 1, 0, 1
4181, '1', 25.3, -28.81, 42.62, -28.81, 1.0234445, 0, 0, 0, 1.0, 0, 0, 1, 1, 1, 25.3, 0, 1, 1, 0, 1, 0, 1, 0, 1, 0, 1
4183, '1', 12.8, -29.23, 43.24, -29.23, 1.0214141, 0, 0, 0, 1.0, 0, 0, 1, 1, 1, 12.8, 0, 1, 1, 0, 1, 0, 1, 0, 1, 0, 1
4192, '1', 75, -8.33, 38.17, -8.33, 1.02, 0, 0, 0, 1.0, 0, 0, 1, 1, 1, 75, 22.5, 1, 1, 0, 1, 0, 1, 0, 1, 0, 1
4192, '10', 57.276689, -20.4, 93.54, -20.4, 1.02, 0, 0, 0, 1.0, 0, 0, 1, 1, 1, 183.77, 55.13, 1, 1, 0, 1, 0, 1, 0, 1, 0, 1
4192, '2', 23.88, 11.353, 12.22, -2.66, 1.02, 0, 0, 0, 1.0, 0, 0, 1, 0, 1, 24, 7.2, 1, 1, 0, 1, 0, 1, 0, 1, 0, 1
4192, '3', 61, -6.77, 31.05, -6.77, 1.02, 0, 0, 0, 1.0, 0, 0, 1, 1, 1, 61, 18.3, 1, 1, 0, 1, 0, 1, 0, 1, 0, 1
4192, '4', 10.4, -1.15, 5.29, -1.15, 1.02, 0, 0, 0, 1.0, 0, 0, 1, 1, 1, 10.4, 3.12, 1, 1, 0, 1, 0, 1, 0, 1, 0, 1
4192, '5', 83.218931, -29.64, 135.9, -29.64, 1.02, 0, 0, 0, 1.0, 0, 0, 1, 1, 1, 267, 80.1, 1, 1, 0, 1, 0, 1, 0, 1, 0, 1
4192, '6', 83.218931, -29.64, 135.9, -29.64, 1.02, 0, 0, 0, 1.0, 0, 0, 1, 1, 1, 267, 80.1, 1, 1, 0, 1, 0, 1, 0, 1, 0, 1
4192, '7', 83.218931, -29.64, 135.9, -29.64, 1.02, 0, 0, 0, 1.0, 0, 0, 1, 1, 1, 267, 80.1, 1, 1, 0, 1, 0, 1, 0, 1, 0, 1
4192, '8', 57.276689, -20.4, 93.54, -20.4, 1.02, 0, 0, 0, 1.0, 0, 0, 1, 1, 1, 183.77, 55.13, 1, 1, 0, 1, 0, 1, 0, 1, 0, 1
4192, '9', 57.276689, -20.4, 93.54, -20.4, 1.02, 0, 0, 0, 1.0, 0, 0, 1, 1, 1, 183.77, 55.13, 1, 1, 0, 1, 0, 1, 0, 1, 0, 1
4194, '1', 20.9, -29.03, 42.94, -29.03, 1.0070265, 0, 0, 0, 1.0, 0, 0, 1, 1, 1, 20.9, 0, 1, 1, 0, 1, 0, 1, 0, 1, 0, 1
4195, '1', 28.9, -13.25, 19.6, -13.25, 1.0296258, 0, 0, 0, 1.0, 0, 0, 1, 1, 1, 28.9, 0, 1, 1, 0, 1, 0, 1, 0, 1, 0, 1
5020, '1', 4.5, -17.28, 25.56, -17.28, 1.0278175, 0, 0, 0, 1.0, 0, 0, 1, 1, 1, 4.5, 0, 1, 1, 0, 1, 0, 1, 0, 1, 0, 1
5023, '1', 4.776, 2.44, 2.44, -0.53, 1.020563, 0, 0, 0, 1.0, 0, 0, 1, 0, 1, 4.8, 1.44, 1, 1, 0, 1, 0, 1, 0, 1, 0, 1
5035, '1', 4.179, 2.14, 2.14, -0.47, 1.0195744, 0, 0, 0, 1.0, 0, 0, 1, 0, 1, 4.2, 1.26, 1, 1, 0, 1, 0, 1, 0, 1, 0, 1
5036, '1', 6.368, 3.26, 3.26, -0.71, 1.0195744, 0, 0, 0, 1.0, 0, 0, 1, 0, 1, 6.4, 1.92, 1, 1, 0, 1, 0, 1, 0, 1, 0, 1
5037, '1', 268.88736, -34.24, 157.01, -34.24, 1.02, 0, 0, 0, 1.0, 0, 0, 1, 1, 1, 308.47, 92.54, 1, 1, 0, 1, 0, 1, 0, 1, 0, 1
5038, '1', 268.88736, -34.24, 157.01, -34.24, 1.02, 0, 0, 0, 1.0, 0, 0, 1, 1, 1, 308.47, 92.54, 1, 1, 0, 1, 0, 1, 0, 1, 0, 1
5039, '1', 268.88736, -34.24, 157.01, -34.24, 1.02, 0, 0, 0, 1.0, 0, 0, 1, 1, 1, 308.47, 92.54, 1, 1, 0, 1, 0, 1, 0, 1, 0, 1
5040, '1', 268.88736, -34.24, 157.01, -34.24, 1.02, 0, 0, 0, 1.0, 0, 0, 1, 1, 1, 308.47, 92.54, 1, 1, 0, 1, 0, 1, 0, 1, 0, 1
5041, '1', 268.88736, -34.24, 157.01, -34.24, 1.02, 0, 0, 0, 1.0, 0, 0, 1, 1, 1, 308.47, 92.54, 1, 1, 0, 1, 0, 1, 0, 1, 0, 1
5042, '1', 268.88736, -34.24, 157.01, -34.24, 1.02, 0, 0, 0, 1.0, 0, 0, 1, 1, 1, 308.47, 92.54, 1, 1, 0, 1, 0, 1, 0, 1, 0, 1
5051, '1', 84.7, -9.4, 43.11, -9.4, 1.0242598, 0, 0, 0, 1.0, 0, 0, 1, 1, 1, 84.7, 25.41, 1, 1, 0, 1, 0, 1, 0, 1, 0, 1
5057, '1', 182.476, -35.23, 161.53, -35.23, 1.0293231, 0, 0, 0, 1.0, 0, 0, 1, 0, 1, 317.35, 95.2, 1, 1, 0, 1, 0, 1, 0, 1, 0, 1
5058, '1', 98.907089, -35.23, 161.53, -35.23, 1.0234073, 0, 0, 0, 1.0, 0, 0, 1, 1, 1, 317.35, 95.2, 1, 1, 0, 1, 0, 1, 0, 1, 0, 1
5065, '1', 10.6, -1.18, 5.4, -1.18, 1.0229697, 0, 0, 0, 1.0, 0, 0, 1, 1, 1, 10.6, 3.18, 1, 1, 0, 1, 0, 1, 0, 1, 0, 1
5066, '1', 1.791, 0.92, 0.92, -0.2, 1.0220195, 0, 0, 0, 1.0, 0, 0, 1, 0, 1, 1.8, 0.54, 1, 1, 0, 1, 0, 1, 0, 1, 0, 1
5067, '1', 136.5996, -48.65, 223.08, -48.65, 1.03, 0, 0, 0, 1.0, 0, 0, 1, 1, 1, 438.27, 131.48, 1, 1, 0, 1, 0, 1, 0, 1, 0, 1
5068, '1', 136.5996, -48.65, 223.08, -48.65, 1.03, 0, 0, 0, 1.0, 0, 0, 1, 1, 1, 438.27, 131.48, 1, 1, 0, 1, 0, 1, 0, 1, 0, 1
5069, '1', 136.5996, -48.65, 223.08, -48.65, 1.03, 0, 0, 0, 1.0, 0, 0, 1, 1, 1, 438.27, 131.48, 1, 1, 0, 1, 0, 1, 0, 1, 0, 1
5089, '1', 123.691, -2.05, 47.569, -2.05, 1.0188191, 0, 0, 0, 1.0, 0, 0, 1, 0, 1, 123.9, 0, 1, 1, 0, 1, 0, 1, 0, 1, 0, 1
...
0 / END OF GENERATOR DATA, BEGIN BRANCH DATA
1001, 1064, '1', 0.00524, 0.0358, 0.00609, 221, 221, 221, 0, 0, 0, 0, 1, 1, 0, 1, 1, 0, 1, 0, 1, 0, 1
1001, 1064, '2', 0.00524, 0.0358, 0.00609, 221, 221, 221, 0, 0, 0, 0, 1, 1, 0, 1, 1, 0, 1, 0, 1, 0, 1
1001, 1071, '1', 0.00435, 0.02808, 0.00536, 221, 221, 221, 0, 0, 0, 0, 1, 1, 0, 1, 1, 0, 1, 0, 1, 0, 1
1001, 1071, '2', 0.00435, 0.02808, 0.00536, 221, 221, 221, 0, 0, 0, 0, 1, 1, 0, 1, 1, 0, 1, 0, 1, 0, 1
1002, 1007, '1', 0.07776, 0.46693, 0.06336, 98, 98, 98, 0, 0, 0, 0, 1, 1, 0, 1, 1, 0, 1, 0, 1, 0, 1
1010, 1002, '1', 0.05552, 0.1357, 0.01777, 98, 98, 98, 0, 0, 0, 0, 1, 1, 0, 1, 1, 0, 1, 0, 1, 0, 1
1022, 1003, '1', 0.00485, 0.02012, 0.00341, 221, 221, 221, 0, 0, 0, 0, 1, 1, 0, 1, 1, 0, 1, 0, 1, 0, 1
1055, 1003, '1', 0.01574, 0.03782, 0.00513, 98, 98, 98, 0, 0, 0, 0, 1, 1, 0, 1, 1, 0, 1, 0, 1, 0, 1
1004, 3133, '1', 0.0042, 0.03, 0.055, 523, 523, 523, 0, 0, 0, 0, 1, 1, 0, 1, 1, 0, 1, 0, 1, 0, 1
1025, 1005, '1', 0.01842, 0.0821, 0.01204, 149, 149, 149, 0, 0, 0, 0, 1, 1, 0, 1, 1, 0, 1, 0, 1, 0, 1
1005, 1061, '1', 0.00599, 0.02484, 0.00422, 221, 221, 221, 0, 0, 0, 0, 1, 1, 0, 1, 1, 0, 1, 0, 1, 0, 1
1067, 1005, '1', 0.01711, 0.04181, 0.00548, 98, 98, 98, 0, 0, 0, 0, 1, 1, 0, 1, 1, 0, 1, 0, 1, 0, 1
1007, 1015, '1', 0.06224, 0.37375, 0.05072, 98, 98, 98, 0, 0, 0, 0, 1, 1, 0, 1, 1, 0, 1, 0, 1, 0, 1
1031, 1007, '1', 0.04803, 0.27434, 0.04123, 98, 98, 98, 0, 0, 0, 0, 1, 1, 0, 1, 1, 0, 1, 0, 1, 0, 1
1008, 1032, '1', 0.04501, 0.11002, 0.01441, 98, 98, 98, 0, 0, 0, 0, 1, 1, 0, 1, 1, 0, 1, 0, 1, 0, 1
1008, 1069, '1', 0.0083, 0.03628, 0.00553, 149, 149, 149, 0, 0, 0, 0, 1, 1, 0, 1, 1, 0, 1, 0, 1, 0, 1
1010, 1015, '1', 0.04703, 0.28243, 0.03833, 98, 98, 98, 0, 0, 0, 0, 1, 1, 0, 1, 1, 0, 1, 0, 1, 0, 1
1010, 1030, '1', 0.0616, 0.3699, 0.0502, 98, 98, 98, 0, 0, 0, 0, 1, 1, 0, 1, 1, 0, 1, 0, 1, 0, 1
1012, 1087, '1', 0.04934, 0.20469, 0.03473, 149, 149, 149, 0, 0, 0, 0, 1, 1, 0, 1, 1, 0, 1, 0, 1, 0, 1
3051, 1012, '1', 0.0571, 0.24977, 0.03804, 149, 149, 149, 0, 0, 0, 0, 1, 1, 0, 1, 1, 0, 1, 0, 1, 0, 1
1013, 1031, '1', 0.04509, 0.27078, 0.03675, 98, 98, 98, 0, 0, 0, 0, 1, 1, 0, 1, 1, 0, 1, 0, 1, 0, 1
1047, 1013, '1', 0.00947, 0.06117, 0.01167, 221, 221, 221, 0, 0, 0, 0, 1, 1, 0, 1, 1, 0, 1, 0, 1, 0, 1
1086, 1013, '1', 0.079, 0.19311, 0.02529, 98, 98, 98, 0, 0, 0, 0, 1, 1, 0, 1, 1, 0, 1, 0, 1, 0, 1
1014, 1047, '1', 0.03566, 0.14794, 0.0251, 149, 149, 149, 0, 0, 0, 0, 1, 1, 0, 1, 1, 0, 1, 0, 1, 0, 1
1014, 1083, '1', 0.04105, 0.18293, 0.02682, 149, 149, 149, 0, 0, 0, 0, 1, 1, 0, 1, 1, 0, 1, 0, 1, 0, 1
1016, 1034, '1', 0.01828, 0.10976, 0.01489, 98, 98, 98, 0, 0, 0, 0, 1, 1, 0, 1, 1, 0, 1, 0, 1, 0, 1
1068, 1016, '1', 0.02773, 0.15837, 0.0238, 98, 98, 98, 0, 0, 0, 0, 1, 1, 0, 1, 1, 0, 1, 0, 1, 0, 1
1018, 1017, '1', 0.03227, 0.07887, 0.01033, 98, 98, 98, 0, 0, 0, 0, 1, 1, 0, 1, 1, 0, 1, 0, 1, 0, 1
1017, 1029, '1', 0.03244, 0.14188, 0.02161, 149, 149, 149, 0, 0, 0, 0, 1, 1, 0, 1, 1, 0, 1, 0, 1, 0, 1
1037, 1017, '1', 0.00752, 0.03352, 0.00491, 221, 221, 221, 0, 0, 0, 0, 1, 1, 0, 1, 1, 0, 1, 0, 1, 0, 1
1047, 1017, '1', 0.036, 0.156, 0.024, 150, 150, 150, 0, 0, 0, 0, 1, 1, 0, 1, 1, 0, 1, 0, 1, 0, 1
1024, 1018, '1', 0.01094, 0.06572, 0.00892, 98, 98, 98, 0, 0, 0, 0, 1, 1, 0, 1, 1, 0, 1, 0, 1, 0, 1
1019, 1040, '1', 0.04978, 0.20651, 0.03504, 149, 149, 149, 0, 0, 0, 0, 1, 1, 0, 1, 1, 0, 1, 0, 1, 0, 1
1019, 1045, '1', 0.01522, 0.0372, 0.00487, 221, 221, 221, 0, 0, 0, 0, 1, 1, 0, 1, 1, 0, 1, 0, 1, 0, 1
1019, 1071, '1', 0.0044, 0.028, 0.0054, 225, 225, 225, 0, 0, 0, 0, 1, 1, 0, 1, 1, 0, 1, 0, 1, 0, 1
1071, 1019, '2', 0.0044, 0.028, 0.0054, 225, 225, 225, 0, 0, 0, 0, 1, 1, 0, 1, 1, 0, 1, 0, 1, 0, 1
1019, 1084, '1', 0.03, 0.16, 0.025, 220, 220, 220, 0, 0, 0, 0, 1, 1, 0, 1, 1, 0, 1, 0, 1, 0, 1
1025, 1020, '1', 0.00828, 0.03434, 0.00583, 149, 149, 149, 0, 0, 0, 0, 1, 1, 0, 1, 1, 0, 1, 0, 1, 0, 1
1084, 1020, '1', 0.01056, 0.06337, 0.0086, 221, 221, 221, 0, 0, 0, 0, 1, 1, 0, 1, 1, 0, 1, 0, 1, 0, 1
1020, 3059, '1', 0.0189, 0.06, 0.006, 300, 300, 300, 0, 0, 0, 0, 1, 1, 0, 1, 1, 0, 1, 0, 1, 0, 1
1020, 3130, '1', 0.00996, 0.06938, 0.01134, 221, 221, 221, 0, 0, 0, 0, 1, 1, 0, 1, 1, 0, 1, 0, 1, 0, 1
1022, 1028, '1', 0.01433, 0.09253, 0.01765, 221, 221, 221, 0, 0, 0, 0, 1, 1, 0, 1, 1, 0, 1, 0, 1, 0, 1
1022, 1028, '2', 0.01433, 0.09253, 0.01765, 221, 221, 221, 0, 0, 0, 0, 1, 1, 0, 1, 1, 0, 1, 0, 1, 0, 1
1024, 1090, '1', 0.01414, 0.06303, 0.00924, 149, 149, 149, 0, 0, 0, 0, 1, 1, 0, 1, 1, 0, 1, 0, 1, 0, 1
1027, 1045, '1', 0.02505, 0.10957, 0.01669, 221, 221, 221, 0, 0, 0, 0, 1, 1, 0, 1, 1, 0, 1, 0, 1, 0, 1
1056, 1027, '1', 0.03121, 0.0763, 0.00999, 250, 250, 250, 0, 0, 0, 0, 1, 1, 0, 1, 1, 0, 1, 0, 1, 0, 1
1028, 3109, '1', 0.00428, 0.01875, 0.00286, 250, 250, 250, 0, 0, 0, 0, 1, 1, 0, 1, 1, 0, 1, 0, 1, 0, 1
1029, 1056, '1', 0.02054, 0.11733, 0.01763, 221, 221, 221, 0, 0, 0, 0, 1, 1, 0, 1, 1, 0, 1, 0, 1, 0, 1
1030, 1038, '1', 0.07404, 0.42285, 0.06354, 98, 98, 98, 0, 0, 0, 0, 1, 1, 0, 1, 1, 0, 1, 0, 1, 0, 1
1083, 1030, '1', 0.06537, 0.37334, 0.0561, 98, 98, 98, 0, 0, 0, 0, 1, 1, 0, 1, 1, 0, 1, 0, 1, 0, 1
1032, 1036, '1', 0.01956, 0.11746, 0.01594, 98, 98, 98, 0, 0, 0, 0, 1, 1, 0, 1, 1, 0, 1, 0, 1, 0, 1
1038, 1032, '1', 0.045, 0.11, 0.015, 155, 155, 155, 0, 0, 0, 0, 1, 1, 0, 1, 1, 0, 1, 0, 1, 0, 1
1033, 1081, '1', 0.003, 0.031, 0.059, 548, 548, 548, 0, 0, 0, 0, 1, 1, 0, 1, 1, 0, 1, 0, 1, 0, 1
1033, 3050, '1', 0.0139, 0.136, 0.262, 647, 647, 647, 0, 0, 0, 0, 1, 1, 0, 1, 1, 0, 1, 0, 1, 0, 1
1067, 1034, '1', 0.00795, 0.04771, 0.00647, 98, 98, 98, 0, 0, 0, 0, 1, 1, 0, 1, 1, 0, 1, 0, 1, 0, 1
1088, 1036, '1', 0.02065, 0.11793, 0.01772, 98, 98, 98, 0, 0, 0, 0, 1, 1, 0, 1, 1, 0, 1, 0, 1, 0, 1
1037, 1071, '1', 0.00669, 0.04319, 0.00824, 300, 300, 300, 0, 0, 0, 0, 1, 1, 0, 1, 1, 0, 1, 0, 1, 0, 1
1082, 1038, '1', 0.01115, 0.04969, 0.00729, 149, 149, 149, 0, 0, 0, 0, 1, 1, 0, 1, 1, 0, 1, 0, 1, 0, 1
1083, 1038, '1', 0.01, 0.05, 0.007, 221, 221, 221, 0, 0, 0, 0, 1, 1, 0, 1, 1, 0, 1, 0, 1, 0, 1
1040, 1090, '1', 0.02991, 0.13329, 0.01955, 149, 149, 149, 0, 0, 0, 0, 1, 1, 0, 1, 1, 0, 1, 0, 1, 0, 1
1065, 1041, '1', 0.00386, 0.02203, 0.00331, 98, 98, 98, 0, 0, 0, 0, 1, 1, 0, 1, 1, 0, 1, 0, 1, 0, 1
1041, 1067, '1', 0.00393, 0.01722, 0.00262, 149, 149, 149, 0, 0, 0, 0, 1, 1, 0, 1, 1, 0, 1, 0, 1, 0, 1
1044, 3019, '1', 0.03857, 0.17192, 0.02521, 149, 149, 149, 0, 0, 0, 0, 1, 1, 0, 1, 1, 0, 1, 0, 1, 0, 1
3130, 1044, '1', 0.02731, 0.19029, 0.03111, 221, 221, 221, 0, 0, 0, 0, 1, 1, 0, 1, 1, 0, 1, 0, 1, 0, 1
1045, 1064, '1', 0.00545, 0.03794, 0.0062, 221, 221, 221, 0, 0, 0, 0, 1, 1, 0, 1, 1, 0, 1, 0, 1, 0, 1
1087, 1046, '1', 0.03262, 0.14269, 0.02173, 149, 149, 149, 0, 0, 0, 0, 1, 1, 0, 1, 1, 0, 1, 0, 1, 0, 1
1046, 3009, '1', 0.05654, 0.23454, 0.0398, 149, 149, 149, 0, 0, 0, 0, 1, 1, 0, 1, 1, 0, 1, 0, 1, 0, 1
1047, 1085, '1', 0.00947, 0.06117, 0.01167, 221, 221, 221, 0, 0, 0, 0, 1, 1, 0, 1, 1, 0, 1, 0, 1, 0, 1
1053, 1081, '1', 0.003, 0.03, 0.06, 548, 548, 548, 0, 0, 0, 0, 1, 1, 0, 1, 1, 0, 1, 0, 1, 0, 1
1054, 1056, '1', 0.02202, 0.09633, 0.01467, 149, 149, 149, 0, 0, 0, 0, 1, 1, 0, 1, 1, 0, 1, 0, 1, 0, 1
1089, 1054, '1', 0.08737, 0.21357, 0.02796, 98, 98, 98, 0, 0, 0, 0, 1, 1, 0, 1, 1, 0, 1, 0, 1, 0, 1
1055, 1089, '1', 0.04982, 0.12179, 0.01595, 98, 98, 98, 0, 0, 0, 0, 1, 1, 0, 1, 1, 0, 1, 0, 1, 0, 1
1056, 1061, '1', 0.02267, 0.12946, 0.01945, 150, 150, 150, 0, 0, 0, 0, 1, 1, 0, 1, 1, 0, 1, 0, 1, 0, 1
1056, 1065, '1', 0.02269, 0.12962, 0.01948, 250, 250, 250, 0, 0, 0, 0, 1, 1, 0, 1, 1, 0, 1, 0, 1, 0, 1
1069, 1058, '1', 0.0074, 0.05155, 0.00843, 221, 221, 221, 0, 0, 0, 0, 1, 1, 0, 1, 1, 0, 1, 0, 1, 0, 1
1069, 1058, '2', 0.0074, 0.05155, 0.00843, 221, 221, 221, 0, 0, 0, 0, 1, 1, 0, 1, 1, 0, 1, 0, 1, 0, 1
1058, 1087, '1', 0.01573, 0.10956, 0.01791, 221, 221, 221, 0, 0, 0, 0, 1, 1, 0, 1, 1, 0, 1, 0, 1, 0, 1
1058, 1087, '2', 0.01573, 0.10956, 0.01791, 221, 221, 221, 0, 0, 0, 0, 1, 1, 0, 1, 1, 0, 1, 0, 1, 0, 1
1061, 3042, '1', 0.054, 0.18, 0.028, 221, 221, 221, 0, 0, 0, 0, 1, 1, 0, 1, 1, 0, 1, 0, 1, 0, 1
1088, 1068, '1', 0.02962, 0.16921, 0.02543, 98, 98, 98, 0, 0, 0, 0, 1, 1, 0, 1, 1, 0, 1, 0, 1, 0, 1
1082, 1069, '1', 0.02137, 0.0952, 0.01396, 149, 149, 149, 0, 0, 0, 0, 1, 1, 0, 1, 1, 0, 1, 0, 1, 0, 1
3048, 1079, '1', 0.0013, 0.015, 1.02, 2300, 2300, 2300, 0, 0, 0, 0, 1, 1, 0, 1, 1, 0, 1, 0, 1, 0, 1
3048, 1079, '2', 0.0013, 0.015, 1.02, 2300, 2300, 2300, 0, 0, 0, 0, 1, 1, 0, 1, 1, 0, 1, 0, 1, 0, 1
1081, 3058, '1', 0.0091, 0.089, 0.171, 548, 548, 548, 0, 0, 0, 0, 1, 1, 0, 1, 1, 0, 1, 0, 1, 0, 1
1084, 3130, '1', 0.02049, 0.09131, 0.01339, 221, 221, 221, 0, 0, 0, 0, 1, 1, 0, 1, 1, 0, 1, 0, 1, 0, 1
1085, 1086, '1', 0.03392, 0.14838, 0.0226, 149, 149, 149, 0, 0, 0, 0, 1, 1, 0, 1, 1, 0, 1, 0, 1, 0, 1
1090, 1085, '1', 0.02018, 0.13786, 0.02346, 221, 221, 221, 0, 0, 0, 0, 1, 1, 0, 1, 1, 0, 1, 0, 1, 0, 1
2029, 1091, '1', 0.0389, 0.17144, 0.0798, 187, 187, 187, 0, 0, 0, 0, 1, 1, 0, 1, 1, 0, 1, 0, 1, 0, 1
1091, 2048, '1', 0.02193, 0.09667, 0.045, 187, 187, 187, 0, 0, 0, 0, 1, 1, 0, 1, 1, 0, 1, 0, 1, 0, 1
2098, 1091, '1', 0.00554, 0.02443, 0.01137, 187, 187, 187, 0, 0, 0, 0, 1, 1, 0, 1, 1, 0, 1, 0, 1, 0, 1
2022, 2001, '1', 0.00839, 0.03697, 0.01721, 187, 187, 187, 0, 0, 0, 0, 1, 1, 0, 1, 1, 0, 1, 0, 1, 0, 1
2027, 2001, '1', 0.00955, 0.04062, 0.02032, 187, 187, 187, 0, 0, 0, 0, 1, 1, 0, 1, 1, 0, 1, 0, 1, 0, 1
2021, 2002, '1', 0.00097, 0.01175, 0.78032, 2295, 2295, 2295, 0, 0, 0, 0, 1, 1, 0, 1, 1, 0, 1, 0, 1, 0, 1
2002, 2101, '1', 0.00031, 0.0037, 0.24573, 2020, 2020, 2020, 0, 0, 0, 0, 1, 1, 0, 1, 1, 0, 1, 0, 1, 0, 1
2038, 2003, '1', 0.00353, 0.02067, 0.01032, 251, 251, 251, 0, 0, 0, 0, 1, 1, 0, 1, 1, 0, 1, 0, 1, 0, 1
2003, 2047, '1', 0.0013, 0.0099, 0.0052, 310, 310, 310, 0, 0, 0, 0, 1, 1, 0, 1, 1, 0, 1, 0, 1, 0, 1
2007, 2114, '1', 0.00888, 0.05207, 0.026, 251, 251, 251, 0, 0, 0, 0, 1, 1, 0, 1, 1, 0, 1, 0, 1, 0, 1
2007, 2122, '1', 0.00861, 0.03661, 0.01831, 187, 187, 187, 0, 0, 0, 0, 1, 1, 0, 1, 1, 0, 1, 0, 1, 0, 1
2014, 2008, '1', 0.02253, 0.09931, 0.04623, 187, 187, 187, 0, 0, 0, 0, 1, 1, 0, 1, 1, 0, 1, 0, 1, 0, 1
2008, 2052, '1', 0.01877, 0.08271, 0.0385, 187, 187, 187, 0, 0, 0, 0, 1, 1, 0, 1, 1, 0, 1, 0, 1, 0, 1
2009, 2049, '1', 0.01224, 0.07176, 0.03583, 251, 251, 251, 0, 0, 0, 0, 1, 1, 0, 1, 1, 0, 1, 0, 1, 0, 1
2009, 2082, '1', 0.00735, 0.03126, 0.01563, 187, 187, 187, 0, 0, 0, 0, 1, 1, 0, 1, 1, 0, 1, 0, 1, 0, 1
2109, 2009, '1', 0.00725, 0.03084, 0.01542, 250, 250, 250, 0, 0, 0, 0, 1, 1, 0, 1, 1, 0, 1, 0, 1, 0, 1
2061, 2010, '1', 0.02439, 0.10748, 0.05003, 187, 187, 187, 0, 0, 0, 0, 1, 1, 0, 1, 1, 0, 1, 0, 1, 0, 1
2010, 2079, '1', 0.02061, 0.09083, 0.04228, 187, 187, 187, 0, 0, 0, 0, 1, 1, 0, 1, 1, 0, 1, 0, 1, 0, 1
2010, 2091, '1', 0.02461, 0.10467, 0.05235, 187, 187, 187, 0, 0, 0, 0, 1, 1, 0, 1, 1, 0, 1, 0, 1, 0, 1
2127, 2011, '1', 0.00108, 0.01307, 0.86827, 2020, 2020, 2020, 0, 0, 0, 0, 1, 1, 0, 1, 1, 0, 1, 0, 1, 0, 1
2012, 2041, '1', 0.01245, 0.05297, 0.02649, 187, 187, 187, 0, 0, 0, 0, 1, 1, 0, 1, 1, 0, 1, 0, 1, 0, 1
2012, 2052, '1', 0.02008, 0.08851, 0.0412, 187, 187, 187, 0, 0, 0, 0, 1, 1, 0, 1, 1, 0, 1, 0, 1, 0, 1
2093, 2012, '1', 0.01029, 0.04536, 0.02111, 187, 187, 187, 0, 0, 0, 0, 1, 1, 0, 1, 1, 0, 1, 0, 1, 0, 1
2012, 2123, '1', 0.00995, 0.0423, 0.02115, 251, 251, 251, 0, 0, 0, 0, 1, 1, 0, 1, 1, 0, 1, 0, 1, 0, 1
...